# generated using pymatgen
data_H(Pt61Au22)3
_symmetry_space_group_name_H-M   'P 1'
_cell_length_a   30.00000000
_cell_length_b   30.00000000
_cell_length_c   30.00000000
_cell_angle_alpha   90.00000000
_cell_angle_beta   90.00000000
_cell_angle_gamma   90.00000000
_symmetry_Int_Tables_number   1
_chemical_formula_structural   H(Pt61Au22)3
_chemical_formula_sum   'H1 Pt183 Au66'
_cell_volume   27000.00000000
_cell_formula_units_Z   1
loop_
 _symmetry_equiv_pos_site_id
 _symmetry_equiv_pos_as_xyz
  1  'x, y, z'
loop_
 _atom_site_type_symbol
 _atom_site_label
 _atom_site_symmetry_multiplicity
 _atom_site_fract_x
 _atom_site_fract_y
 _atom_site_fract_z
 _atom_site_occupancy
  H  H0  1  0.56984994  0.81603156  0.43049494  1
  Pt  Pt1  1  0.49981490  0.49967889  0.50001199  1
  Pt  Pt2  1  0.43372530  0.43375029  0.50006337  1
  Pt  Pt3  1  0.56624435  0.43409592  0.49996983  1
  Pt  Pt4  1  0.43424547  0.56628316  0.49994513  1
  Pt  Pt5  1  0.56574833  0.56565952  0.49995311  1
  Pt  Pt6  1  0.49985815  0.43460303  0.56582751  1
  Pt  Pt7  1  0.43471835  0.50007163  0.56572396  1
  Pt  Pt8  1  0.49977729  0.43450770  0.43420498  1
  Pt  Pt9  1  0.43441380  0.49971997  0.43429155  1
  Pt  Pt10  1  0.50020276  0.56512916  0.56585294  1
  Pt  Pt11  1  0.56507478  0.49983231  0.56609445  1
  Pt  Pt12  1  0.56501241  0.49996627  0.43404810  1
  Pt  Pt13  1  0.49994141  0.56485606  0.43402650  1
  Pt  Pt14  1  0.63006167  0.49999884  0.50002236  1
  Pt  Pt15  1  0.50048627  0.63036848  0.49946813  1
  Pt  Pt16  1  0.50022157  0.37007399  0.49999750  1
  Pt  Pt17  1  0.36998317  0.50025998  0.50008827  1
  Pt  Pt18  1  0.49961547  0.49958474  0.36929127  1
  Pt  Pt19  1  0.49970225  0.49968404  0.63078194  1
  Pt  Pt20  1  0.63031210  0.43437602  0.56732020  1
  Pt  Pt21  1  0.43470040  0.63048100  0.56680989  1
  Pt  Pt22  1  0.43412401  0.62993195  0.43288304  1
  Pt  Pt23  1  0.63029369  0.43442195  0.43274228  1
  Pt  Pt24  1  0.62993911  0.56543310  0.56743155  1
  Pt  Pt25  1  0.56552850  0.62995778  0.56731139  1
  Pt  Pt26  1  0.43423289  0.36931866  0.56631806  1
  Pt  Pt27  1  0.36933569  0.43435202  0.56639711  1
  Pt  Pt28  1  0.63015640  0.56541437  0.43269602  1
  Pt  Pt29  1  0.56564303  0.62995924  0.43236709  1
  Pt  Pt30  1  0.43416939  0.36925379  0.43364502  1
  Pt  Pt31  1  0.36925838  0.43418713  0.43365795  1
  Pt  Pt32  1  0.56564479  0.36969681  0.56747527  1
  Pt  Pt33  1  0.36978493  0.56582924  0.56733759  1
  Pt  Pt34  1  0.56567773  0.36968743  0.43255599  1
  Pt  Pt35  1  0.36928864  0.56536955  0.43258094  1
  Pt  Pt36  1  0.43389999  0.43393733  0.36795173  1
  Pt  Pt37  1  0.43426140  0.56559430  0.36788155  1
  Pt  Pt38  1  0.56565866  0.43431342  0.36761464  1
  Pt  Pt39  1  0.56538031  0.56537382  0.36729016  1
  Pt  Pt40  1  0.43396365  0.43400141  0.63196650  1
  Pt  Pt41  1  0.43452560  0.56584089  0.63218183  1
  Pt  Pt42  1  0.56560647  0.43424239  0.63248979  1
  Pt  Pt43  1  0.56552237  0.56521094  0.63301401  1
  Pt  Pt44  1  0.63001966  0.63047380  0.49994372  1
  Pt  Pt45  1  0.63040603  0.36946335  0.50007869  1
  Pt  Pt46  1  0.36953798  0.63050467  0.49993363  1
  Pt  Pt47  1  0.36871490  0.36871844  0.50007373  1
  Pt  Pt48  1  0.63059558  0.50012404  0.36713541  1
  Pt  Pt49  1  0.50006103  0.63071123  0.36757569  1
  Pt  Pt50  1  0.63060796  0.49997360  0.63297004  1
  Pt  Pt51  1  0.50027069  0.63063329  0.63262130  1
  Pt  Pt52  1  0.49969124  0.36949181  0.36753815  1
  Pt  Pt53  1  0.36938926  0.49960181  0.36743331  1
  Pt  Pt54  1  0.49967505  0.36945543  0.63250589  1
  Pt  Pt55  1  0.36962479  0.49991707  0.63235382  1
  Pt  Pt56  1  0.43427472  0.30581511  0.50001153  1
  Pt  Pt57  1  0.30582109  0.43419019  0.50016929  1
  Pt  Pt58  1  0.56433778  0.30824687  0.49999077  1
  Pt  Pt59  1  0.30814645  0.56437764  0.50008247  1
  Pt  Pt60  1  0.43608826  0.69210065  0.49954976  1
  Pt  Pt61  1  0.69191104  0.43575668  0.49999367  1
  Pt  Pt62  1  0.56423922  0.69292418  0.49860975  1
  Pt  Pt63  1  0.69200601  0.56426636  0.50012405  1
  Pt  Pt64  1  0.50007571  0.30553132  0.56758522  1
  Pt  Pt65  1  0.30552955  0.50006688  0.56760557  1
  Pt  Pt66  1  0.50003092  0.30548537  0.43240985  1
  Pt  Pt67  1  0.30549640  0.49993651  0.43245452  1
  Pt  Pt68  1  0.69464414  0.50018253  0.56803292  1
  Pt  Pt69  1  0.50069614  0.69461804  0.56758265  1
  Pt  Pt70  1  0.50108375  0.69550587  0.43191888  1
  Pt  Pt71  1  0.69465676  0.50026634  0.43201766  1
  Pt  Pt72  1  0.49977724  0.43369183  0.69635189  1
  Pt  Pt73  1  0.43376007  0.49999688  0.69628023  1
  Pt  Pt74  1  0.49991485  0.56617014  0.69649595  1
  Pt  Pt75  1  0.56605224  0.49985683  0.69666204  1
  Pt  Pt76  1  0.49992997  0.43374194  0.30368904  1
  Pt  Pt77  1  0.43376396  0.50002378  0.30367275  1
  Pt  Pt78  1  0.49983321  0.56613440  0.30361660  1
  Pt  Pt79  1  0.56604331  0.50000233  0.30350171  1
  Pt  Pt80  1  0.63139731  0.63149786  0.36697302  1
  Pt  Pt81  1  0.63131827  0.63151731  0.63314283  1
  Pt  Pt82  1  0.63171877  0.36831239  0.36677516  1
  Pt  Pt83  1  0.36829043  0.63168500  0.36686003  1
  Pt  Pt84  1  0.63178765  0.36836065  0.63324423  1
  Pt  Pt85  1  0.36838817  0.63167634  0.63310199  1
  Pt  Pt86  1  0.36849165  0.36850490  0.36702184  1
  Pt  Pt87  1  0.36850366  0.36845308  0.63283643  1
  Pt  Pt88  1  0.63358230  0.30239860  0.56912611  1
  Pt  Pt89  1  0.30240141  0.63356897  0.56914305  1
  Pt  Pt90  1  0.63354597  0.30232349  0.43085776  1
  Pt  Pt91  1  0.30231743  0.63360701  0.43095512  1
  Pt  Pt92  1  0.36698245  0.30244286  0.56696372  1
  Pt  Pt93  1  0.30256413  0.36697245  0.56704034  1
  Pt  Pt94  1  0.36690271  0.30251780  0.43303175  1
  Pt  Pt95  1  0.30252510  0.36709577  0.43313228  1
  Pt  Pt96  1  0.63237480  0.69734554  0.56852392  1
  Pt  Pt97  1  0.69704199  0.63310283  0.56869920  1
  Pt  Pt98  1  0.63291448  0.69759264  0.43120379  1
  Pt  Pt99  1  0.69743852  0.63267596  0.43112849  1
  Pt  Pt100  1  0.69787509  0.36666683  0.56921869  1
  Pt  Pt101  1  0.36675328  0.69769731  0.56910639  1
  Pt  Pt102  1  0.69773171  0.36672748  0.43086104  1
  Pt  Pt103  1  0.36657105  0.69782535  0.43086221  1
  Pt  Pt104  1  0.43452428  0.30255487  0.36565933  1
  Pt  Pt105  1  0.30256027  0.43442844  0.36549984  1
  Pt  Pt106  1  0.56564436  0.30295544  0.36511174  1
  Pt  Pt107  1  0.30290311  0.56569891  0.36498118  1
  Pt  Pt108  1  0.43443233  0.30261861  0.63422021  1
  Pt  Pt109  1  0.30272815  0.43449141  0.63431855  1
  Pt  Pt110  1  0.43466092  0.69708630  0.36600720  1
  Pt  Pt111  1  0.69735407  0.43469139  0.36545403  1
  Pt  Pt112  1  0.56569782  0.30297690  0.63496713  1
  Pt  Pt113  1  0.30298405  0.56574978  0.63495399  1
  Pt  Pt114  1  0.69758257  0.56550069  0.36507315  1
  Pt  Pt115  1  0.56554662  0.69761092  0.36553697  1
  Pt  Pt116  1  0.69747536  0.43463698  0.63462581  1
  Pt  Pt117  1  0.43470733  0.69724383  0.63434158  1
  Pt  Pt118  1  0.69750051  0.56552926  0.63480559  1
  Pt  Pt119  1  0.56544459  0.69765556  0.63485604  1
  Pt  Pt120  1  0.63357876  0.43453709  0.69946876  1
  Pt  Pt121  1  0.43455040  0.63343987  0.69925471  1
  Pt  Pt122  1  0.56560218  0.63349332  0.69963839  1
  Pt  Pt123  1  0.63345379  0.56567621  0.69968720  1
  Pt  Pt124  1  0.43419920  0.36648699  0.69928971  1
  Pt  Pt125  1  0.36666973  0.43429404  0.69931984  1
  Pt  Pt126  1  0.63343457  0.43456762  0.30061272  1
  Pt  Pt127  1  0.43460276  0.63347263  0.30085483  1
  Pt  Pt128  1  0.56583618  0.36696179  0.69974632  1
  Pt  Pt129  1  0.36705414  0.56595272  0.69970307  1
  Pt  Pt130  1  0.63345196  0.56571427  0.30038497  1
  Pt  Pt131  1  0.56561802  0.63309961  0.30039346  1
  Pt  Pt132  1  0.43435138  0.36652432  0.30062024  1
  Pt  Pt133  1  0.36658829  0.43430597  0.30060828  1
  Pt  Pt134  1  0.56587808  0.36693833  0.30025246  1
  Pt  Pt135  1  0.36707743  0.56589225  0.30033488  1
  Pt  Pt136  1  0.50007538  0.75906180  0.49983794  1
  Pt  Pt137  1  0.75857952  0.50015250  0.50001154  1
  Pt  Pt138  1  0.50101223  0.24120011  0.50002811  1
  Pt  Pt139  1  0.24117346  0.50080881  0.50011904  1
  Pt  Pt140  1  0.49993695  0.49982676  0.23899260  1
  Pt  Pt141  1  0.49972232  0.49979988  0.76101271  1
  Pt  Pt142  1  0.30558717  0.30561506  0.50002860  1
  Pt  Pt143  1  0.69360304  0.30657175  0.49995388  1
  Pt  Pt144  1  0.30655779  0.69360292  0.50004233  1
  Pt  Pt145  1  0.69337147  0.69371309  0.49985234  1
  Pt  Pt146  1  0.75954833  0.43535468  0.56442787  1
  Pt  Pt147  1  0.43536943  0.75933136  0.56442509  1
  Pt  Pt148  1  0.75947811  0.43540058  0.43556382  1
  Pt  Pt149  1  0.43507871  0.75963160  0.43557890  1
  Pt  Pt150  1  0.56481488  0.75989969  0.56476983  1
  Pt  Pt151  1  0.75959640  0.56490506  0.56459650  1
  Pt  Pt152  1  0.75969343  0.56491675  0.43552906  1
  Pt  Pt153  1  0.56492114  0.76446585  0.43619487  1
  Pt  Pt154  1  0.43643255  0.24069139  0.56488553  1
  Pt  Pt155  1  0.24065450  0.43640316  0.56499195  1
  Pt  Pt156  1  0.24085991  0.43647255  0.43511528  1
  Pt  Pt157  1  0.43641134  0.24075654  0.43513580  1
  Pt  Pt158  1  0.56494103  0.24073255  0.56477864  1
  Pt  Pt159  1  0.24069140  0.56493027  0.56471251  1
  Pt  Pt160  1  0.56493618  0.24068329  0.43523652  1
  Pt  Pt161  1  0.24080280  0.56482850  0.43534933  1
  Pt  Pt162  1  0.49995808  0.30467709  0.69660184  1
  Pt  Pt163  1  0.30495420  0.50007542  0.69661202  1
  Pt  Pt164  1  0.50008853  0.30466510  0.30339409  1
  Pt  Pt165  1  0.30477605  0.50008644  0.30323347  1
  Pt  Pt166  1  0.49992785  0.69602881  0.69642038  1
  Pt  Pt167  1  0.69609188  0.50005617  0.69647268  1
  Pt  Pt168  1  0.69602706  0.50005085  0.30344616  1
  Pt  Pt169  1  0.50021804  0.69593591  0.30375080  1
  Pt  Pt170  1  0.43587631  0.43600978  0.23839943  1
  Pt  Pt171  1  0.43617323  0.56418990  0.23811226  1
  Pt  Pt172  1  0.56424151  0.43608274  0.23814758  1
  Pt  Pt173  1  0.43589447  0.43573531  0.76156552  1
  Pt  Pt174  1  0.56387181  0.56397951  0.23810292  1
  Pt  Pt175  1  0.43617217  0.56427113  0.76186393  1
  Pt  Pt176  1  0.56409734  0.43613397  0.76179205  1
  Pt  Pt177  1  0.56385590  0.56386997  0.76195483  1
  Pt  Pt178  1  0.75268278  0.62696195  0.50000910  1
  Pt  Pt179  1  0.62702817  0.75320473  0.50008183  1
  Pt  Pt180  1  0.75260816  0.37327282  0.49999609  1
  Pt  Pt181  1  0.37321897  0.75258816  0.50005974  1
  Pt  Pt182  1  0.62665308  0.24749625  0.50000576  1
  Pt  Pt183  1  0.24740277  0.62673970  0.50005028  1
  Au  Au184  1  0.37040019  0.23704421  0.49994154  1
  Au  Au185  1  0.23699674  0.37038052  0.50017470  1
  Au  Au186  1  0.76509927  0.50008685  0.36928563  1
  Au  Au187  1  0.50007197  0.76472602  0.36903943  1
  Au  Au188  1  0.76513937  0.50006727  0.63075600  1
  Au  Au189  1  0.49994656  0.76503634  0.63063936  1
  Au  Au190  1  0.23589190  0.50088240  0.36834135  1
  Au  Au191  1  0.50089373  0.23553313  0.36845204  1
  Au  Au192  1  0.50088125  0.23575449  0.63162684  1
  Au  Au193  1  0.23591656  0.50088624  0.63164156  1
  Au  Au194  1  0.63085094  0.50006712  0.23406077  1
  Au  Au195  1  0.50001822  0.63097412  0.23414222  1
  Au  Au196  1  0.36934467  0.50002836  0.23394020  1
  Au  Au197  1  0.49998248  0.36953809  0.23396251  1
  Au  Au198  1  0.63092832  0.50004728  0.76592577  1
  Au  Au199  1  0.50002639  0.63096331  0.76591405  1
  Au  Au200  1  0.49997464  0.36926859  0.76601993  1
  Au  Au201  1  0.36955631  0.49997895  0.76603234  1
  Au  Au202  1  0.30063587  0.30065107  0.36611038  1
  Au  Au203  1  0.30059705  0.30060205  0.63388974  1
  Au  Au204  1  0.70013016  0.29991031  0.36410867  1
  Au  Au205  1  0.29993348  0.70009937  0.36410901  1
  Au  Au206  1  0.70018425  0.29986940  0.63592122  1
  Au  Au207  1  0.29989865  0.70013298  0.63588089  1
  Au  Au208  1  0.69977185  0.69982019  0.36524335  1
  Au  Au209  1  0.69967829  0.69990092  0.63476544  1
  Au  Au210  1  0.63192463  0.30060849  0.70190344  1
  Au  Au211  1  0.30063230  0.63192863  0.70192789  1
  Au  Au212  1  0.30038464  0.36814618  0.70122919  1
  Au  Au213  1  0.36789097  0.30035078  0.70121665  1
  Au  Au214  1  0.63192275  0.30059284  0.29809230  1
  Au  Au215  1  0.30064203  0.63192021  0.29809021  1
  Au  Au216  1  0.63196282  0.69945643  0.70173267  1
  Au  Au217  1  0.69942522  0.63196372  0.70172695  1
  Au  Au218  1  0.36815345  0.30034926  0.29870437  1
  Au  Au219  1  0.30039907  0.36793567  0.29867387  1
  Au  Au220  1  0.69971339  0.36822493  0.70184369  1
  Au  Au221  1  0.36838696  0.69958177  0.70171520  1
  Au  Au222  1  0.69949239  0.63206751  0.29833406  1
  Au  Au223  1  0.63162543  0.69953732  0.29850581  1
  Au  Au224  1  0.69962445  0.36835160  0.29824886  1
  Au  Au225  1  0.36843749  0.69968076  0.29830304  1
  Au  Au226  1  0.62972216  0.76311770  0.36775851  1
  Au  Au227  1  0.76325334  0.62966154  0.36754279  1
  Au  Au228  1  0.76294466  0.62981632  0.63227349  1
  Au  Au229  1  0.62985349  0.76310301  0.63234948  1
  Au  Au230  1  0.76336104  0.37053710  0.36746585  1
  Au  Au231  1  0.37058726  0.76335666  0.36734977  1
  Au  Au232  1  0.76344554  0.37051901  0.63260184  1
  Au  Au233  1  0.37056171  0.76331299  0.63256355  1
  Au  Au234  1  0.62957994  0.23669795  0.36728369  1
  Au  Au235  1  0.23669661  0.62955739  0.36734859  1
  Au  Au236  1  0.62957724  0.23672203  0.63266731  1
  Au  Au237  1  0.23669445  0.62956703  0.63268193  1
  Au  Au238  1  0.37058019  0.23712510  0.36866660  1
  Au  Au239  1  0.23715206  0.37051248  0.36861264  1
  Au  Au240  1  0.37052016  0.23710470  0.63141234  1
  Au  Au241  1  0.23712321  0.37052842  0.63139040  1
  Au  Au242  1  0.62973731  0.62977393  0.23493268  1
  Au  Au243  1  0.37081233  0.63023644  0.23481584  1
  Au  Au244  1  0.63019784  0.37071013  0.23475902  1
  Au  Au245  1  0.62957816  0.62960353  0.76524003  1
  Au  Au246  1  0.37022505  0.37015797  0.23515210  1
  Au  Au247  1  0.63010319  0.37062187  0.76518568  1
  Au  Au248  1  0.37075645  0.63021130  0.76526469  1
  Au  Au249  1  0.37003744  0.37002950  0.76482359  1
