# generated using pymatgen
data_H(Pt61Au22)3
_symmetry_space_group_name_H-M   'P 1'
_cell_length_a   30.00000000
_cell_length_b   30.00000000
_cell_length_c   30.00000000
_cell_angle_alpha   90.00000000
_cell_angle_beta   90.00000000
_cell_angle_gamma   90.00000000
_symmetry_Int_Tables_number   1
_chemical_formula_structural   H(Pt61Au22)3
_chemical_formula_sum   'H1 Pt183 Au66'
_cell_volume   27000.00000000
_cell_formula_units_Z   1
loop_
 _symmetry_equiv_pos_site_id
 _symmetry_equiv_pos_as_xyz
  1  'x, y, z'
loop_
 _atom_site_type_symbol
 _atom_site_label
 _atom_site_symmetry_multiplicity
 _atom_site_fract_x
 _atom_site_fract_y
 _atom_site_fract_z
 _atom_site_occupancy
  H  H0  1  0.81675871  0.50022317  0.49948935  1
  Pt  Pt1  1  0.49995756  0.49984255  0.50000040  1
  Pt  Pt2  1  0.43375222  0.43374168  0.49999669  1
  Pt  Pt3  1  0.56633893  0.43408589  0.50000320  1
  Pt  Pt4  1  0.43415172  0.56627095  0.49999939  1
  Pt  Pt5  1  0.56601073  0.56593622  0.50000244  1
  Pt  Pt6  1  0.49990726  0.43468990  0.56570043  1
  Pt  Pt7  1  0.43461312  0.49985011  0.56575421  1
  Pt  Pt8  1  0.49991144  0.43468811  0.43430854  1
  Pt  Pt9  1  0.43461143  0.49985141  0.43425002  1
  Pt  Pt10  1  0.50007440  0.56501441  0.56584319  1
  Pt  Pt11  1  0.56508024  0.49998927  0.56589605  1
  Pt  Pt12  1  0.56507841  0.49999332  0.43410895  1
  Pt  Pt13  1  0.50007450  0.56501250  0.43416103  1
  Pt  Pt14  1  0.63018710  0.50011295  0.49999837  1
  Pt  Pt15  1  0.50019692  0.63015354  0.50000231  1
  Pt  Pt16  1  0.50036729  0.37008070  0.50000009  1
  Pt  Pt17  1  0.37007575  0.50023033  0.50000262  1
  Pt  Pt18  1  0.49976195  0.49970386  0.36936000  1
  Pt  Pt19  1  0.49976149  0.49970585  0.63064405  1
  Pt  Pt20  1  0.63064438  0.43467448  0.56673516  1
  Pt  Pt21  1  0.43435613  0.63027691  0.56718643  1
  Pt  Pt22  1  0.43435583  0.63027748  0.43281592  1
  Pt  Pt23  1  0.63063730  0.43466469  0.43326197  1
  Pt  Pt24  1  0.63049428  0.56535823  0.56689826  1
  Pt  Pt25  1  0.56577673  0.63022974  0.56737930  1
  Pt  Pt26  1  0.43424749  0.36934635  0.56633691  1
  Pt  Pt27  1  0.36929969  0.43419529  0.56641733  1
  Pt  Pt28  1  0.63049300  0.56536328  0.43309797  1
  Pt  Pt29  1  0.56577628  0.63023011  0.43262070  1
  Pt  Pt30  1  0.43424293  0.36934450  0.43366630  1
  Pt  Pt31  1  0.36929746  0.43419657  0.43358495  1
  Pt  Pt32  1  0.56578932  0.36970847  0.56742111  1
  Pt  Pt33  1  0.36965570  0.56568653  0.56742118  1
  Pt  Pt34  1  0.56578331  0.36970610  0.43257438  1
  Pt  Pt35  1  0.36965410  0.56568547  0.43258415  1
  Pt  Pt36  1  0.43394284  0.43394126  0.36804977  1
  Pt  Pt37  1  0.43430547  0.56565180  0.36775182  1
  Pt  Pt38  1  0.56577948  0.43439184  0.36777281  1
  Pt  Pt39  1  0.56567555  0.56549589  0.36762241  1
  Pt  Pt40  1  0.43394071  0.43394309  0.63195544  1
  Pt  Pt41  1  0.43430715  0.56565507  0.63225292  1
  Pt  Pt42  1  0.56578156  0.43440052  0.63222464  1
  Pt  Pt43  1  0.56567790  0.56549753  0.63238082  1
  Pt  Pt44  1  0.63002223  0.63093252  0.49999996  1
  Pt  Pt45  1  0.62998620  0.36913426  0.50000294  1
  Pt  Pt46  1  0.36944272  0.63038076  0.50000425  1
  Pt  Pt47  1  0.36863621  0.36875840  0.50000052  1
  Pt  Pt48  1  0.63030203  0.50000503  0.36725972  1
  Pt  Pt49  1  0.50016436  0.63053129  0.36734739  1
  Pt  Pt50  1  0.63029972  0.50001007  0.63272858  1
  Pt  Pt51  1  0.50016145  0.63053420  0.63265295  1
  Pt  Pt52  1  0.49986538  0.36952841  0.36757735  1
  Pt  Pt53  1  0.36942696  0.49974860  0.36746585  1
  Pt  Pt54  1  0.49986587  0.36953300  0.63241987  1
  Pt  Pt55  1  0.36942816  0.49974727  0.63253373  1
  Pt  Pt56  1  0.43422570  0.30595893  0.49999929  1
  Pt  Pt57  1  0.30592680  0.43436146  0.50000358  1
  Pt  Pt58  1  0.56408381  0.30799108  0.50000090  1
  Pt  Pt59  1  0.30826133  0.56427303  0.50000216  1
  Pt  Pt60  1  0.43575492  0.69192878  0.50000129  1
  Pt  Pt61  1  0.69280165  0.43620380  0.49999544  1
  Pt  Pt62  1  0.56399505  0.69236852  0.50000348  1
  Pt  Pt63  1  0.69278902  0.56390599  0.49999615  1
  Pt  Pt64  1  0.49994932  0.30551227  0.56759223  1
  Pt  Pt65  1  0.30555491  0.49999464  0.56760487  1
  Pt  Pt66  1  0.49994939  0.30550903  0.43241238  1
  Pt  Pt67  1  0.30555340  0.49999996  0.43240129  1
  Pt  Pt68  1  0.69540968  0.50019528  0.56715123  1
  Pt  Pt69  1  0.50011618  0.69465582  0.56800677  1
  Pt  Pt70  1  0.50011768  0.69465778  0.43199505  1
  Pt  Pt71  1  0.69538999  0.50018960  0.43281874  1
  Pt  Pt72  1  0.49987559  0.43371471  0.69625302  1
  Pt  Pt73  1  0.43366688  0.49994324  0.69622786  1
  Pt  Pt74  1  0.49991797  0.56613958  0.69632213  1
  Pt  Pt75  1  0.56607264  0.49998618  0.69651754  1
  Pt  Pt76  1  0.49987722  0.43371476  0.30374432  1
  Pt  Pt77  1  0.43367674  0.49994474  0.30377024  1
  Pt  Pt78  1  0.49992236  0.56613727  0.30367607  1
  Pt  Pt79  1  0.56607170  0.49998583  0.30348683  1
  Pt  Pt80  1  0.63166569  0.63157795  0.36701609  1
  Pt  Pt81  1  0.63166749  0.63157397  0.63298088  1
  Pt  Pt82  1  0.63175733  0.36842664  0.36697252  1
  Pt  Pt83  1  0.36823904  0.63175212  0.36680460  1
  Pt  Pt84  1  0.63175570  0.36842912  0.63301483  1
  Pt  Pt85  1  0.36823605  0.63175673  0.63319785  1
  Pt  Pt86  1  0.36849856  0.36850553  0.36706556  1
  Pt  Pt87  1  0.36849635  0.36850562  0.63293742  1
  Pt  Pt88  1  0.63345867  0.30215387  0.56912987  1
  Pt  Pt89  1  0.30233246  0.63360875  0.56905510  1
  Pt  Pt90  1  0.63346047  0.30215439  0.43086961  1
  Pt  Pt91  1  0.30233039  0.63360937  0.43094398  1
  Pt  Pt92  1  0.36694298  0.30245880  0.56700793  1
  Pt  Pt93  1  0.30245818  0.36694184  0.56698138  1
  Pt  Pt94  1  0.36694144  0.30245321  0.43299379  1
  Pt  Pt95  1  0.30246186  0.36694211  0.43302211  1
  Pt  Pt96  1  0.63334603  0.69788206  0.56909537  1
  Pt  Pt97  1  0.69722865  0.63325702  0.56869557  1
  Pt  Pt98  1  0.63334188  0.69788332  0.43089910  1
  Pt  Pt99  1  0.69722819  0.63326303  0.43129960  1
  Pt  Pt100  1  0.69737159  0.36682618  0.56871645  1
  Pt  Pt101  1  0.36668851  0.69779324  0.56912081  1
  Pt  Pt102  1  0.69737272  0.36682825  0.43127921  1
  Pt  Pt103  1  0.36669369  0.69779037  0.43087690  1
  Pt  Pt104  1  0.43454646  0.30267181  0.36572333  1
  Pt  Pt105  1  0.30261338  0.43450896  0.36563380  1
  Pt  Pt106  1  0.56564439  0.30295863  0.36512398  1
  Pt  Pt107  1  0.30298480  0.56567584  0.36507355  1
  Pt  Pt108  1  0.43454888  0.30267420  0.63427065  1
  Pt  Pt109  1  0.30261647  0.43449674  0.63437657  1
  Pt  Pt110  1  0.43464549  0.69727131  0.36545684  1
  Pt  Pt111  1  0.69716413  0.43499813  0.36581468  1
  Pt  Pt112  1  0.56565168  0.30295798  0.63486814  1
  Pt  Pt113  1  0.30298781  0.56567067  0.63492092  1
  Pt  Pt114  1  0.69721610  0.56516255  0.36566764  1
  Pt  Pt115  1  0.56549716  0.69754664  0.36525857  1
  Pt  Pt116  1  0.69715786  0.43500335  0.63416683  1
  Pt  Pt117  1  0.43464233  0.69727736  0.63454191  1
  Pt  Pt118  1  0.69721941  0.56514992  0.63431307  1
  Pt  Pt119  1  0.56550423  0.69754722  0.63474340  1
  Pt  Pt120  1  0.63339186  0.43452080  0.69945044  1
  Pt  Pt121  1  0.43457703  0.63335182  0.69934287  1
  Pt  Pt122  1  0.56562612  0.63318044  0.69941611  1
  Pt  Pt123  1  0.63329403  0.56568497  0.69951650  1
  Pt  Pt124  1  0.43441702  0.36655677  0.69932371  1
  Pt  Pt125  1  0.36652254  0.43432843  0.69939882  1
  Pt  Pt126  1  0.63340513  0.43452152  0.30054523  1
  Pt  Pt127  1  0.43458131  0.63334786  0.30066582  1
  Pt  Pt128  1  0.56583862  0.36707062  0.69964249  1
  Pt  Pt129  1  0.36692644  0.56588555  0.69974363  1
  Pt  Pt130  1  0.63329315  0.56569399  0.30046938  1
  Pt  Pt131  1  0.56562909  0.63318069  0.30058361  1
  Pt  Pt132  1  0.43441973  0.36655606  0.30067165  1
  Pt  Pt133  1  0.36653477  0.43434668  0.30061254  1
  Pt  Pt134  1  0.56583798  0.36706088  0.30034934  1
  Pt  Pt135  1  0.36692551  0.56588468  0.30026003  1
  Pt  Pt136  1  0.50021236  0.75862761  0.49999907  1
  Pt  Pt137  1  0.76485548  0.50007932  0.49999288  1
  Pt  Pt138  1  0.50095426  0.24128710  0.49999982  1
  Pt  Pt139  1  0.24124462  0.50090462  0.50000230  1
  Pt  Pt140  1  0.49983118  0.49986706  0.23926373  1
  Pt  Pt141  1  0.49981806  0.49985808  0.76073094  1
  Pt  Pt142  1  0.30571014  0.30561990  0.50000469  1
  Pt  Pt143  1  0.69338823  0.30627166  0.50000121  1
  Pt  Pt144  1  0.30656091  0.69360634  0.49999942  1
  Pt  Pt145  1  0.69348525  0.69394329  0.50000248  1
  Pt  Pt146  1  0.75959882  0.43508765  0.56415829  1
  Pt  Pt147  1  0.43529357  0.75953095  0.56434540  1
  Pt  Pt148  1  0.75958747  0.43509188  0.43583229  1
  Pt  Pt149  1  0.43529040  0.75953194  0.43565238  1
  Pt  Pt150  1  0.56483803  0.75988427  0.56479815  1
  Pt  Pt151  1  0.75970270  0.56509109  0.56433991  1
  Pt  Pt152  1  0.75968771  0.56510352  0.43565594  1
  Pt  Pt153  1  0.56483694  0.75988595  0.43520053  1
  Pt  Pt154  1  0.43641359  0.24071902  0.56482297  1
  Pt  Pt155  1  0.24070455  0.43640512  0.56501331  1
  Pt  Pt156  1  0.24070311  0.43640851  0.43499003  1
  Pt  Pt157  1  0.43641284  0.24071460  0.43518068  1
  Pt  Pt158  1  0.56481720  0.24054873  0.56491402  1
  Pt  Pt159  1  0.24071413  0.56492958  0.56479871  1
  Pt  Pt160  1  0.56482002  0.24054949  0.43509076  1
  Pt  Pt161  1  0.24071643  0.56493180  0.43520172  1
  Pt  Pt162  1  0.50010816  0.30470823  0.69665726  1
  Pt  Pt163  1  0.30476418  0.50007639  0.69676338  1
  Pt  Pt164  1  0.50010526  0.30470157  0.30333573  1
  Pt  Pt165  1  0.30476366  0.50008131  0.30323341  1
  Pt  Pt166  1  0.50009724  0.69587735  0.69644594  1
  Pt  Pt167  1  0.69581301  0.50010494  0.69634664  1
  Pt  Pt168  1  0.69581187  0.50011539  0.30364595  1
  Pt  Pt169  1  0.50009385  0.69587977  0.30355069  1
  Pt  Pt170  1  0.43590533  0.43600372  0.23841830  1
  Pt  Pt171  1  0.43617734  0.56417772  0.23813987  1
  Pt  Pt172  1  0.56405504  0.43612028  0.23811059  1
  Pt  Pt173  1  0.43588650  0.43599056  0.76157859  1
  Pt  Pt174  1  0.56377760  0.56401364  0.23813345  1
  Pt  Pt175  1  0.43616724  0.56417574  0.76185602  1
  Pt  Pt176  1  0.56405620  0.43611957  0.76188747  1
  Pt  Pt177  1  0.56377465  0.56400315  0.76186574  1
  Pt  Pt178  1  0.75270509  0.62759334  0.49999894  1
  Pt  Pt179  1  0.62647135  0.75285156  0.49999701  1
  Pt  Pt180  1  0.75286217  0.37238990  0.49999954  1
  Pt  Pt181  1  0.37316300  0.75276342  0.49999906  1
  Pt  Pt182  1  0.62626761  0.24723325  0.50000290  1
  Pt  Pt183  1  0.24746472  0.62662313  0.50000078  1
  Au  Au184  1  0.37044806  0.23700791  0.50000678  1
  Au  Au185  1  0.23714105  0.37058421  0.50000112  1
  Au  Au186  1  0.76502574  0.50005296  0.36934875  1
  Au  Au187  1  0.49988667  0.76489367  0.36920241  1
  Au  Au188  1  0.76502556  0.50004297  0.63064812  1
  Au  Au189  1  0.49988623  0.76489237  0.63079812  1
  Au  Au190  1  0.23583014  0.50087273  0.36829507  1
  Au  Au191  1  0.50078629  0.23566891  0.36832221  1
  Au  Au192  1  0.50078812  0.23566578  0.63167961  1
  Au  Au193  1  0.23583170  0.50086985  0.63170662  1
  Au  Au194  1  0.63078746  0.50009660  0.23399978  1
  Au  Au195  1  0.50000692  0.63099055  0.23404844  1
  Au  Au196  1  0.36941195  0.50001165  0.23380965  1
  Au  Au197  1  0.49990643  0.36932462  0.23387900  1
  Au  Au198  1  0.63079156  0.50009900  0.76599740  1
  Au  Au199  1  0.50000947  0.63098567  0.76594693  1
  Au  Au200  1  0.49990826  0.36932655  0.76612182  1
  Au  Au201  1  0.36940966  0.50001023  0.76618915  1
  Au  Au202  1  0.30061022  0.30060024  0.36607026  1
  Au  Au203  1  0.30060974  0.30059831  0.63392999  1
  Au  Au204  1  0.70004941  0.29991602  0.36432326  1
  Au  Au205  1  0.29990167  0.70012397  0.36416516  1
  Au  Au206  1  0.70005609  0.29990284  0.63562126  1
  Au  Au207  1  0.29990205  0.70012232  0.63583665  1
  Au  Au208  1  0.70006325  0.70009657  0.36429590  1
  Au  Au209  1  0.70006548  0.70009330  0.63570501  1
  Au  Au210  1  0.63194613  0.30061291  0.70186205  1
  Au  Au211  1  0.30056879  0.63200570  0.70189865  1
  Au  Au212  1  0.30040256  0.36799146  0.70136137  1
  Au  Au213  1  0.36816211  0.30034323  0.70125025  1
  Au  Au214  1  0.63194457  0.30060335  0.29813406  1
  Au  Au215  1  0.30056361  0.63200829  0.29810481  1
  Au  Au216  1  0.63175426  0.69949521  0.70172493  1
  Au  Au217  1  0.69946392  0.63165708  0.70155062  1
  Au  Au218  1  0.36814739  0.30035085  0.29874137  1
  Au  Au219  1  0.30040332  0.36801008  0.29865000  1
  Au  Au220  1  0.69949071  0.36842072  0.70147718  1
  Au  Au221  1  0.36834067  0.69959951  0.70164016  1
  Au  Au222  1  0.69946097  0.63165937  0.29844232  1
  Au  Au223  1  0.63175354  0.69950096  0.29827788  1
  Au  Au224  1  0.69953019  0.36840246  0.29849088  1
  Au  Au225  1  0.36833475  0.69960499  0.29835846  1
  Au  Au226  1  0.62961128  0.76342256  0.36741191  1
  Au  Au227  1  0.76287746  0.62972248  0.36767561  1
  Au  Au228  1  0.76287514  0.62971853  0.63232131  1
  Au  Au229  1  0.62961707  0.76341992  0.63258604  1
  Au  Au230  1  0.76293671  0.37032978  0.36768940  1
  Au  Au231  1  0.37054933  0.76338080  0.36741927  1
  Au  Au232  1  0.76293219  0.37032949  0.63231051  1
  Au  Au233  1  0.37054710  0.76338270  0.63257982  1
  Au  Au234  1  0.62953441  0.23663174  0.36727089  1
  Au  Au235  1  0.23666945  0.62956922  0.36734720  1
  Au  Au236  1  0.62953491  0.23663007  0.63273099  1
  Au  Au237  1  0.23667575  0.62956638  0.63265267  1
  Au  Au238  1  0.37057040  0.23710062  0.36867286  1
  Au  Au239  1  0.23711458  0.37053147  0.36862191  1
  Au  Au240  1  0.37057940  0.23709922  0.63131524  1
  Au  Au241  1  0.23712400  0.37052685  0.63138611  1
  Au  Au242  1  0.62968675  0.62973170  0.23496202  1
  Au  Au243  1  0.37070975  0.63013216  0.23477858  1
  Au  Au244  1  0.63009061  0.37065083  0.23482002  1
  Au  Au245  1  0.62970889  0.62971179  0.76503038  1
  Au  Au246  1  0.37023155  0.37018892  0.23516283  1
  Au  Au247  1  0.63008627  0.37065265  0.76518238  1
  Au  Au248  1  0.37070232  0.63012700  0.76522715  1
  Au  Au249  1  0.37024712  0.37017361  0.76484004  1
