# generated using pymatgen
data_H(Pt61Au22)3
_symmetry_space_group_name_H-M   'P 1'
_cell_length_a   30.00000000
_cell_length_b   30.00000000
_cell_length_c   30.00000000
_cell_angle_alpha   90.00000000
_cell_angle_beta   90.00000000
_cell_angle_gamma   90.00000000
_symmetry_Int_Tables_number   1
_chemical_formula_structural   H(Pt61Au22)3
_chemical_formula_sum   'H1 Pt183 Au66'
_cell_volume   27000.00000000
_cell_formula_units_Z   1
loop_
 _symmetry_equiv_pos_site_id
 _symmetry_equiv_pos_as_xyz
  1  'x, y, z'
loop_
 _atom_site_type_symbol
 _atom_site_label
 _atom_site_symmetry_multiplicity
 _atom_site_fract_x
 _atom_site_fract_y
 _atom_site_fract_z
 _atom_site_occupancy
  H  H0  1  0.50086326  0.18284809  0.50057684  1
  Pt  Pt1  1  0.49989623  0.49975743  0.50000168  1
  Pt  Pt2  1  0.43374437  0.43369555  0.50000028  1
  Pt  Pt3  1  0.56634890  0.43409872  0.50000376  1
  Pt  Pt4  1  0.43407828  0.56615555  0.49999428  1
  Pt  Pt5  1  0.56595913  0.56590513  0.49999655  1
  Pt  Pt6  1  0.49985972  0.43465933  0.56571614  1
  Pt  Pt7  1  0.43466463  0.49975053  0.56566766  1
  Pt  Pt8  1  0.49984602  0.43466214  0.43430168  1
  Pt  Pt9  1  0.43465423  0.49975495  0.43432208  1
  Pt  Pt10  1  0.50000054  0.56502411  0.56584861  1
  Pt  Pt11  1  0.56506049  0.49994726  0.56584741  1
  Pt  Pt12  1  0.56504838  0.49994882  0.43415450  1
  Pt  Pt13  1  0.49999223  0.56503959  0.43412915  1
  Pt  Pt14  1  0.63021904  0.50004929  0.49999871  1
  Pt  Pt15  1  0.50003633  0.63007537  0.49999308  1
  Pt  Pt16  1  0.50023280  0.37005652  0.50001360  1
  Pt  Pt17  1  0.37001895  0.50013054  0.49998797  1
  Pt  Pt18  1  0.49971010  0.49965119  0.36932649  1
  Pt  Pt19  1  0.49972453  0.49964664  0.63066947  1
  Pt  Pt20  1  0.63040020  0.43428407  0.56719450  1
  Pt  Pt21  1  0.43431455  0.63030213  0.56719724  1
  Pt  Pt22  1  0.43430941  0.63029754  0.43278849  1
  Pt  Pt23  1  0.63039838  0.43428325  0.43280536  1
  Pt  Pt24  1  0.63020648  0.56564701  0.56733443  1
  Pt  Pt25  1  0.56567610  0.63024074  0.56734150  1
  Pt  Pt26  1  0.43449798  0.36909154  0.56605477  1
  Pt  Pt27  1  0.36923766  0.43420254  0.56636782  1
  Pt  Pt28  1  0.63020405  0.56564918  0.43266503  1
  Pt  Pt29  1  0.56567072  0.63024125  0.43265025  1
  Pt  Pt30  1  0.43449987  0.36906832  0.43395182  1
  Pt  Pt31  1  0.36924127  0.43419946  0.43361910  1
  Pt  Pt32  1  0.56538665  0.36949253  0.56688856  1
  Pt  Pt33  1  0.36968755  0.56558388  0.56734787  1
  Pt  Pt34  1  0.56537251  0.36948397  0.43313067  1
  Pt  Pt35  1  0.36968552  0.56558188  0.43263627  1
  Pt  Pt36  1  0.43397106  0.43391573  0.36805671  1
  Pt  Pt37  1  0.43434638  0.56563113  0.36774385  1
  Pt  Pt38  1  0.56563221  0.43420774  0.36781453  1
  Pt  Pt39  1  0.56556526  0.56556888  0.36760320  1
  Pt  Pt40  1  0.43397068  0.43391400  0.63194401  1
  Pt  Pt41  1  0.43435010  0.56563233  0.63224631  1
  Pt  Pt42  1  0.56564834  0.43420886  0.63219190  1
  Pt  Pt43  1  0.56557748  0.56556646  0.63239339  1
  Pt  Pt44  1  0.63045469  0.63057214  0.49999516  1
  Pt  Pt45  1  0.63088001  0.36994766  0.50000243  1
  Pt  Pt46  1  0.36951117  0.63045919  0.49999505  1
  Pt  Pt47  1  0.36851410  0.36930074  0.49999174  1
  Pt  Pt48  1  0.63053257  0.49995066  0.36733462  1
  Pt  Pt49  1  0.50005619  0.63057257  0.36728985  1
  Pt  Pt50  1  0.63053983  0.49995573  0.63266933  1
  Pt  Pt51  1  0.50006610  0.63055828  0.63269138  1
  Pt  Pt52  1  0.49974978  0.36987771  0.36755884  1
  Pt  Pt53  1  0.36952066  0.49969453  0.36751576  1
  Pt  Pt54  1  0.49976942  0.36988407  0.63246437  1
  Pt  Pt55  1  0.36952185  0.49969121  0.63247035  1
  Pt  Pt56  1  0.43479542  0.30506774  0.50001012  1
  Pt  Pt57  1  0.30551977  0.43453294  0.49999634  1
  Pt  Pt58  1  0.56385817  0.30748397  0.50001104  1
  Pt  Pt59  1  0.30824549  0.56431931  0.49998997  1
  Pt  Pt60  1  0.43582240  0.69195254  0.49999503  1
  Pt  Pt61  1  0.69232604  0.43601952  0.50000119  1
  Pt  Pt62  1  0.56422954  0.69202124  0.49999550  1
  Pt  Pt63  1  0.69199631  0.56434316  0.50000092  1
  Pt  Pt64  1  0.50000435  0.30475249  0.56666181  1
  Pt  Pt65  1  0.30543280  0.50008371  0.56767998  1
  Pt  Pt66  1  0.50000597  0.30469989  0.43340420  1
  Pt  Pt67  1  0.30543275  0.50008242  0.43230430  1
  Pt  Pt68  1  0.69472270  0.50029202  0.56806127  1
  Pt  Pt69  1  0.50017531  0.69460366  0.56801467  1
  Pt  Pt70  1  0.50017091  0.69460358  0.43197825  1
  Pt  Pt71  1  0.69472428  0.50029422  0.43194178  1
  Pt  Pt72  1  0.49998699  0.43378091  0.69649428  1
  Pt  Pt73  1  0.43371328  0.49999703  0.69627566  1
  Pt  Pt74  1  0.50000517  0.56619309  0.69627984  1
  Pt  Pt75  1  0.56615075  0.50003627  0.69631834  1
  Pt  Pt76  1  0.49997597  0.43378339  0.30349337  1
  Pt  Pt77  1  0.43371188  0.50000784  0.30371349  1
  Pt  Pt78  1  0.49999866  0.56619404  0.30371294  1
  Pt  Pt79  1  0.56614189  0.50003511  0.30367692  1
  Pt  Pt80  1  0.63171732  0.63168422  0.36683482  1
  Pt  Pt81  1  0.63171894  0.63168414  0.63316313  1
  Pt  Pt82  1  0.63160710  0.36828237  0.36707281  1
  Pt  Pt83  1  0.36828644  0.63172122  0.36684786  1
  Pt  Pt84  1  0.63160544  0.36827793  0.63294141  1
  Pt  Pt85  1  0.36828093  0.63172575  0.63314499  1
  Pt  Pt86  1  0.36866303  0.36847849  0.36734455  1
  Pt  Pt87  1  0.36865989  0.36847606  0.63266610  1
  Pt  Pt88  1  0.63336890  0.30274242  0.56864822  1
  Pt  Pt89  1  0.30233575  0.63345908  0.56904267  1
  Pt  Pt90  1  0.63336424  0.30272576  0.43135915  1
  Pt  Pt91  1  0.30233604  0.63345659  0.43093899  1
  Pt  Pt92  1  0.36717659  0.30274290  0.56647688  1
  Pt  Pt93  1  0.30242347  0.36702527  0.56701450  1
  Pt  Pt94  1  0.36717390  0.30272360  0.43351819  1
  Pt  Pt95  1  0.30241949  0.36702467  0.43298177  1
  Pt  Pt96  1  0.63347919  0.69762671  0.56905855  1
  Pt  Pt97  1  0.69766100  0.63334946  0.56908683  1
  Pt  Pt98  1  0.63347892  0.69762827  0.43093947  1
  Pt  Pt99  1  0.69766073  0.63335453  0.43091021  1
  Pt  Pt100  1  0.69800191  0.36671879  0.56914752  1
  Pt  Pt101  1  0.36658072  0.69773579  0.56911134  1
  Pt  Pt102  1  0.69801101  0.36671163  0.43085733  1
  Pt  Pt103  1  0.36658645  0.69773400  0.43088885  1
  Pt  Pt104  1  0.43502780  0.30297039  0.36611178  1
  Pt  Pt105  1  0.30257816  0.43461603  0.36576292  1
  Pt  Pt106  1  0.56527572  0.30331652  0.36570489  1
  Pt  Pt107  1  0.30297260  0.56560484  0.36511474  1
  Pt  Pt108  1  0.43500713  0.30298547  0.63389910  1
  Pt  Pt109  1  0.30257381  0.43461011  0.63423665  1
  Pt  Pt110  1  0.43463429  0.69732168  0.36543976  1
  Pt  Pt111  1  0.69736743  0.43464909  0.36548153  1
  Pt  Pt112  1  0.56531346  0.30333027  0.63433426  1
  Pt  Pt113  1  0.30296460  0.56560639  0.63487541  1
  Pt  Pt114  1  0.69748134  0.56553403  0.36519432  1
  Pt  Pt115  1  0.56557575  0.69749299  0.36521890  1
  Pt  Pt116  1  0.69735517  0.43465129  0.63451883  1
  Pt  Pt117  1  0.43464007  0.69732687  0.63455644  1
  Pt  Pt118  1  0.69747720  0.56553312  0.63480056  1
  Pt  Pt119  1  0.56557821  0.69749006  0.63477678  1
  Pt  Pt120  1  0.63324185  0.43452044  0.69929518  1
  Pt  Pt121  1  0.43450892  0.63334672  0.69938954  1
  Pt  Pt122  1  0.56571680  0.63331344  0.69952274  1
  Pt  Pt123  1  0.63329367  0.56563103  0.69947858  1
  Pt  Pt124  1  0.43431451  0.36666188  0.69941593  1
  Pt  Pt125  1  0.36664514  0.43435399  0.69929848  1
  Pt  Pt126  1  0.63323573  0.43451782  0.30070316  1
  Pt  Pt127  1  0.43450809  0.63334941  0.30059975  1
  Pt  Pt128  1  0.56585280  0.36702156  0.69973990  1
  Pt  Pt129  1  0.36696931  0.56579204  0.69968933  1
  Pt  Pt130  1  0.63328323  0.56562818  0.30052771  1
  Pt  Pt131  1  0.56571286  0.63331238  0.30047753  1
  Pt  Pt132  1  0.43431508  0.36665291  0.30057663  1
  Pt  Pt133  1  0.36664971  0.43434953  0.30070634  1
  Pt  Pt134  1  0.56582003  0.36704004  0.30026580  1
  Pt  Pt135  1  0.36696574  0.56579788  0.30030177  1
  Pt  Pt136  1  0.50016930  0.75867639  0.49999671  1
  Pt  Pt137  1  0.75862363  0.50013665  0.49999932  1
  Pt  Pt138  1  0.50043195  0.23473675  0.50001761  1
  Pt  Pt139  1  0.24118703  0.50094911  0.49999054  1
  Pt  Pt140  1  0.49984225  0.49987147  0.23928884  1
  Pt  Pt141  1  0.49984773  0.49985850  0.76070146  1
  Pt  Pt142  1  0.30562790  0.30582608  0.49999763  1
  Pt  Pt143  1  0.69377019  0.30668827  0.50000264  1
  Pt  Pt144  1  0.30645415  0.69354202  0.49999179  1
  Pt  Pt145  1  0.69373770  0.69360744  0.50000134  1
  Pt  Pt146  1  0.75969429  0.43542819  0.56461687  1
  Pt  Pt147  1  0.43525281  0.75949297  0.56444262  1
  Pt  Pt148  1  0.75970038  0.43542464  0.43538581  1
  Pt  Pt149  1  0.43525231  0.75949096  0.43555311  1
  Pt  Pt150  1  0.56499749  0.75962984  0.56464613  1
  Pt  Pt151  1  0.75974464  0.56494376  0.56455847  1
  Pt  Pt152  1  0.75974710  0.56494348  0.43544190  1
  Pt  Pt153  1  0.56499272  0.75962948  0.43534648  1
  Pt  Pt154  1  0.43625756  0.24053104  0.56493106  1
  Pt  Pt155  1  0.24052396  0.43661822  0.56506758  1
  Pt  Pt156  1  0.24051982  0.43661977  0.43492719  1
  Pt  Pt157  1  0.43625780  0.24049893  0.43509645  1
  Pt  Pt158  1  0.56493515  0.24067118  0.56440527  1
  Pt  Pt159  1  0.24058999  0.56492878  0.56470052  1
  Pt  Pt160  1  0.56492753  0.24063289  0.43562105  1
  Pt  Pt161  1  0.24059938  0.56493019  0.43528595  1
  Pt  Pt162  1  0.50013900  0.30497911  0.69660051  1
  Pt  Pt163  1  0.30461085  0.50000780  0.69661555  1
  Pt  Pt164  1  0.50013715  0.30495902  0.30339126  1
  Pt  Pt165  1  0.30462766  0.50001042  0.30339370  1
  Pt  Pt166  1  0.50009560  0.69579687  0.69649582  1
  Pt  Pt167  1  0.69586528  0.50002075  0.69644240  1
  Pt  Pt168  1  0.69587715  0.50001562  0.30353820  1
  Pt  Pt169  1  0.50008914  0.69578476  0.30350273  1
  Pt  Pt170  1  0.43574373  0.43603305  0.23835209  1
  Pt  Pt171  1  0.43623602  0.56417675  0.23811447  1
  Pt  Pt172  1  0.56430350  0.43632740  0.23800463  1
  Pt  Pt173  1  0.43574588  0.43602984  0.76164366  1
  Pt  Pt174  1  0.56385724  0.56394092  0.23818792  1
  Pt  Pt175  1  0.43623846  0.56417409  0.76188134  1
  Pt  Pt176  1  0.56430864  0.43632912  0.76198147  1
  Pt  Pt177  1  0.56383782  0.56391899  0.76181892  1
  Pt  Pt178  1  0.75267894  0.62680697  0.50000169  1
  Pt  Pt179  1  0.62686016  0.75257671  0.49999857  1
  Pt  Pt180  1  0.75293953  0.37352317  0.50000168  1
  Pt  Pt181  1  0.37319480  0.75264048  0.49999558  1
  Pt  Pt182  1  0.62722017  0.24724835  0.50000540  1
  Pt  Pt183  1  0.24735657  0.62661656  0.49999198  1
  Au  Au184  1  0.37011225  0.23683844  0.50000121  1
  Au  Au185  1  0.23710701  0.37061601  0.49999969  1
  Au  Au186  1  0.76498937  0.50023042  0.36912313  1
  Au  Au187  1  0.50002456  0.76481241  0.36923767  1
  Au  Au188  1  0.76498326  0.50023036  0.63087517  1
  Au  Au189  1  0.50002278  0.76483508  0.63073689  1
  Au  Au190  1  0.23542934  0.50107158  0.36830232  1
  Au  Au191  1  0.50092030  0.23576189  0.36834152  1
  Au  Au192  1  0.50093519  0.23581136  0.63167225  1
  Au  Au193  1  0.23542788  0.50106985  0.63169426  1
  Au  Au194  1  0.63100272  0.50007499  0.23406741  1
  Au  Au195  1  0.50004310  0.63097378  0.23406255  1
  Au  Au196  1  0.36926181  0.50002989  0.23396432  1
  Au  Au197  1  0.49999357  0.36975971  0.23377075  1
  Au  Au198  1  0.63100425  0.50007580  0.76592866  1
  Au  Au199  1  0.50004425  0.63097594  0.76593399  1
  Au  Au200  1  0.49999456  0.36976135  0.76622536  1
  Au  Au201  1  0.36927610  0.50003777  0.76605555  1
  Au  Au202  1  0.30061007  0.30063395  0.36615053  1
  Au  Au203  1  0.30061904  0.30063504  0.63385185  1
  Au  Au204  1  0.70008710  0.29995880  0.36431622  1
  Au  Au205  1  0.29991888  0.70009086  0.36416542  1
  Au  Au206  1  0.70009929  0.29995836  0.63566730  1
  Au  Au207  1  0.29991920  0.70009620  0.63583302  1
  Au  Au208  1  0.70012011  0.70011225  0.36413287  1
  Au  Au209  1  0.70012093  0.70011408  0.63586527  1
  Au  Au210  1  0.63178929  0.30057806  0.70176629  1
  Au  Au211  1  0.30057675  0.63197264  0.70188608  1
  Au  Au212  1  0.30048693  0.36827253  0.70112768  1
  Au  Au213  1  0.36829218  0.30049038  0.70121890  1
  Au  Au214  1  0.63163609  0.30063001  0.29837163  1
  Au  Au215  1  0.30057683  0.63197382  0.29811461  1
  Au  Au216  1  0.63194947  0.69946846  0.70184474  1
  Au  Au217  1  0.69950361  0.63190202  0.70186121  1
  Au  Au218  1  0.36829047  0.30048659  0.29879707  1
  Au  Au219  1  0.30047966  0.36827822  0.29886902  1
  Au  Au220  1  0.69948442  0.36837988  0.70158172  1
  Au  Au221  1  0.36833191  0.69957424  0.70163925  1
  Au  Au222  1  0.69955787  0.63188908  0.29815365  1
  Au  Au223  1  0.63195396  0.69948544  0.29816929  1
  Au  Au224  1  0.69948157  0.36836939  0.29841534  1
  Au  Au225  1  0.36832667  0.69958261  0.29835069  1
  Au  Au226  1  0.62964501  0.76329642  0.36745698  1
  Au  Au227  1  0.76331419  0.62964534  0.36745480  1
  Au  Au228  1  0.76330494  0.62963271  0.63254990  1
  Au  Au229  1  0.62964785  0.76329770  0.63254124  1
  Au  Au230  1  0.76342994  0.37052495  0.36739450  1
  Au  Au231  1  0.37051039  0.76335375  0.36744077  1
  Au  Au232  1  0.76343192  0.37054773  0.63259272  1
  Au  Au233  1  0.37050884  0.76335638  0.63255802  1
  Au  Au234  1  0.62969444  0.23717203  0.36767075  1
  Au  Au235  1  0.23667084  0.62955252  0.36735498  1
  Au  Au236  1  0.62968958  0.23719375  0.63234737  1
  Au  Au237  1  0.23667025  0.62956202  0.63263785  1
  Au  Au238  1  0.37061896  0.23774774  0.36869496  1
  Au  Au239  1  0.23709786  0.37058360  0.36869764  1
  Au  Au240  1  0.37061882  0.23775267  0.63131109  1
  Au  Au241  1  0.23709440  0.37058893  0.63130166  1
  Au  Au242  1  0.62969457  0.62966240  0.23493106  1
  Au  Au243  1  0.37069463  0.63007594  0.23483509  1
  Au  Au244  1  0.63008902  0.37062158  0.23485441  1
  Au  Au245  1  0.62961679  0.62957054  0.76518925  1
  Au  Au246  1  0.37006242  0.37007091  0.23515791  1
  Au  Au247  1  0.63008828  0.37062613  0.76515951  1
  Au  Au248  1  0.37067526  0.63007826  0.76516663  1
  Au  Au249  1  0.37006283  0.37006894  0.76484571  1
