# generated using pymatgen
data_H(Pt61Au22)3
_symmetry_space_group_name_H-M   'P 1'
_cell_length_a   30.00000000
_cell_length_b   30.00000000
_cell_length_c   30.00000000
_cell_angle_alpha   90.00000000
_cell_angle_beta   90.00000000
_cell_angle_gamma   90.00000000
_symmetry_Int_Tables_number   1
_chemical_formula_structural   H(Pt61Au22)3
_chemical_formula_sum   'H1 Pt183 Au66'
_cell_volume   27000.00000000
_cell_formula_units_Z   1
loop_
 _symmetry_equiv_pos_site_id
 _symmetry_equiv_pos_as_xyz
  1  'x, y, z'
loop_
 _atom_site_type_symbol
 _atom_site_label
 _atom_site_symmetry_multiplicity
 _atom_site_fract_x
 _atom_site_fract_y
 _atom_site_fract_z
 _atom_site_occupancy
  H  H0  1  0.18366622  0.43188773  0.56947134  1
  Pt  Pt1  1  0.49996631  0.49992951  0.49997419  1
  Pt  Pt2  1  0.43385197  0.43377812  0.50000181  1
  Pt  Pt3  1  0.56631436  0.43414289  0.49994716  1
  Pt  Pt4  1  0.43400269  0.56619109  0.50015309  1
  Pt  Pt5  1  0.56587101  0.56600433  0.49994667  1
  Pt  Pt6  1  0.49979392  0.43470177  0.56566415  1
  Pt  Pt7  1  0.43482327  0.49980859  0.56574488  1
  Pt  Pt8  1  0.49995364  0.43466155  0.43415422  1
  Pt  Pt9  1  0.43449443  0.49967867  0.43432389  1
  Pt  Pt10  1  0.50002292  0.56517385  0.56590326  1
  Pt  Pt11  1  0.56514985  0.50008301  0.56592223  1
  Pt  Pt12  1  0.56502498  0.50006976  0.43399862  1
  Pt  Pt13  1  0.49969704  0.56499479  0.43410901  1
  Pt  Pt14  1  0.63007488  0.50013507  0.49999862  1
  Pt  Pt15  1  0.49999161  0.63012679  0.49994144  1
  Pt  Pt16  1  0.50032816  0.37008473  0.49995806  1
  Pt  Pt17  1  0.36981359  0.49984786  0.50038377  1
  Pt  Pt18  1  0.49959761  0.49971807  0.36927579  1
  Pt  Pt19  1  0.49981766  0.49971154  0.63067361  1
  Pt  Pt20  1  0.63032240  0.43438654  0.56723285  1
  Pt  Pt21  1  0.43472433  0.63087890  0.56727936  1
  Pt  Pt22  1  0.43422926  0.63027046  0.43279914  1
  Pt  Pt23  1  0.63030039  0.43439521  0.43274191  1
  Pt  Pt24  1  0.63028315  0.56568548  0.56736974  1
  Pt  Pt25  1  0.56560940  0.63020084  0.56741349  1
  Pt  Pt26  1  0.43434758  0.36920587  0.56626687  1
  Pt  Pt27  1  0.36948101  0.43400861  0.56654311  1
  Pt  Pt28  1  0.63013985  0.56565235  0.43255596  1
  Pt  Pt29  1  0.56548614  0.63015622  0.43253717  1
  Pt  Pt30  1  0.43430075  0.36939655  0.43371067  1
  Pt  Pt31  1  0.36957922  0.43419575  0.43347082  1
  Pt  Pt32  1  0.56562273  0.36977762  0.56741448  1
  Pt  Pt33  1  0.37017971  0.56600454  0.56740959  1
  Pt  Pt34  1  0.56573182  0.36968304  0.43248324  1
  Pt  Pt35  1  0.36962198  0.56544432  0.43289033  1
  Pt  Pt36  1  0.43420230  0.43383573  0.36764228  1
  Pt  Pt37  1  0.43413102  0.56559005  0.36770822  1
  Pt  Pt38  1  0.56563757  0.43435557  0.36755930  1
  Pt  Pt39  1  0.56545980  0.56559354  0.36745644  1
  Pt  Pt40  1  0.43403182  0.43400021  0.63205492  1
  Pt  Pt41  1  0.43438877  0.56565133  0.63220168  1
  Pt  Pt42  1  0.56567960  0.43434896  0.63232109  1
  Pt  Pt43  1  0.56556732  0.56559402  0.63257900  1
  Pt  Pt44  1  0.63045234  0.63044787  0.49994475  1
  Pt  Pt45  1  0.63045903  0.36951796  0.49994795  1
  Pt  Pt46  1  0.36949330  0.63045195  0.50010953  1
  Pt  Pt47  1  0.36850196  0.36910288  0.50014607  1
  Pt  Pt48  1  0.63055225  0.50009168  0.36719961  1
  Pt  Pt49  1  0.49986501  0.63051095  0.36723210  1
  Pt  Pt50  1  0.63063105  0.50015696  0.63277763  1
  Pt  Pt51  1  0.50015283  0.63065709  0.63289721  1
  Pt  Pt52  1  0.49982091  0.36946220  0.36742299  1
  Pt  Pt53  1  0.36950763  0.49959721  0.36759951  1
  Pt  Pt54  1  0.49968714  0.36949773  0.63250432  1
  Pt  Pt55  1  0.36936157  0.49962290  0.63192030  1
  Pt  Pt56  1  0.43421311  0.30591063  0.49998626  1
  Pt  Pt57  1  0.30507784  0.43436308  0.50111724  1
  Pt  Pt58  1  0.56444941  0.30832836  0.49999638  1
  Pt  Pt59  1  0.30827470  0.56410602  0.50049453  1
  Pt  Pt60  1  0.43579314  0.69209223  0.49984677  1
  Pt  Pt61  1  0.69194908  0.43585807  0.50000970  1
  Pt  Pt62  1  0.56422547  0.69192557  0.49985672  1
  Pt  Pt63  1  0.69198406  0.56426260  0.49989348  1
  Pt  Pt64  1  0.50006065  0.30549803  0.56754552  1
  Pt  Pt65  1  0.30469721  0.49889510  0.56735715  1
  Pt  Pt66  1  0.50002036  0.30554268  0.43246270  1
  Pt  Pt67  1  0.30561017  0.49972006  0.43280590  1
  Pt  Pt68  1  0.69468322  0.50019537  0.56800354  1
  Pt  Pt69  1  0.50028309  0.69473879  0.56803623  1
  Pt  Pt70  1  0.50011390  0.69467066  0.43188967  1
  Pt  Pt71  1  0.69464439  0.50015845  0.43192235  1
  Pt  Pt72  1  0.49983879  0.43375818  0.69629549  1
  Pt  Pt73  1  0.43367228  0.49992989  0.69623868  1
  Pt  Pt74  1  0.49990277  0.56599257  0.69643261  1
  Pt  Pt75  1  0.56611671  0.49993606  0.69637613  1
  Pt  Pt76  1  0.49997077  0.43371851  0.30353031  1
  Pt  Pt77  1  0.43371681  0.49997595  0.30361638  1
  Pt  Pt78  1  0.49984790  0.56612604  0.30356223  1
  Pt  Pt79  1  0.56608568  0.50012086  0.30358986  1
  Pt  Pt80  1  0.63175695  0.63167573  0.36674415  1
  Pt  Pt81  1  0.63167484  0.63165964  0.63332932  1
  Pt  Pt82  1  0.63175794  0.36827231  0.36672927  1
  Pt  Pt83  1  0.36838730  0.63179849  0.36676643  1
  Pt  Pt84  1  0.63176194  0.36834915  0.63322333  1
  Pt  Pt85  1  0.36838562  0.63183901  0.63312308  1
  Pt  Pt86  1  0.36854947  0.36855854  0.36717961  1
  Pt  Pt87  1  0.36852616  0.36855758  0.63272516  1
  Pt  Pt88  1  0.63348325  0.30240263  0.56914916  1
  Pt  Pt89  1  0.30235185  0.63370283  0.56906392  1
  Pt  Pt90  1  0.63362508  0.30225993  0.43080769  1
  Pt  Pt91  1  0.30250745  0.63342016  0.43089477  1
  Pt  Pt92  1  0.36721156  0.30235011  0.56688354  1
  Pt  Pt93  1  0.30232464  0.36722017  0.56698800  1
  Pt  Pt94  1  0.36685267  0.30281863  0.43333854  1
  Pt  Pt95  1  0.30254468  0.36754052  0.43332003  1
  Pt  Pt96  1  0.63323004  0.69751398  0.56909711  1
  Pt  Pt97  1  0.69759557  0.63340493  0.56913436  1
  Pt  Pt98  1  0.63334331  0.69751756  0.43082425  1
  Pt  Pt99  1  0.69766665  0.63344972  0.43082747  1
  Pt  Pt100  1  0.69779028  0.36667872  0.56914537  1
  Pt  Pt101  1  0.36659353  0.69789501  0.56910366  1
  Pt  Pt102  1  0.69773306  0.36671360  0.43082761  1
  Pt  Pt103  1  0.36670642  0.69772801  0.43081484  1
  Pt  Pt104  1  0.43454134  0.30273905  0.36579026  1
  Pt  Pt105  1  0.30257362  0.43459209  0.36570768  1
  Pt  Pt106  1  0.56567985  0.30294243  0.36505615  1
  Pt  Pt107  1  0.30317148  0.56567998  0.36524223  1
  Pt  Pt108  1  0.43456909  0.30256219  0.63428003  1
  Pt  Pt109  1  0.30263460  0.43438501  0.63389491  1
  Pt  Pt110  1  0.43461976  0.69745508  0.36533946  1
  Pt  Pt111  1  0.69738580  0.43467238  0.36537025  1
  Pt  Pt112  1  0.56563191  0.30301511  0.63486479  1
  Pt  Pt113  1  0.30323234  0.56551998  0.63416811  1
  Pt  Pt114  1  0.69750876  0.56559380  0.36525314  1
  Pt  Pt115  1  0.56550461  0.69746473  0.36521340  1
  Pt  Pt116  1  0.69739314  0.43468270  0.63457825  1
  Pt  Pt117  1  0.43473895  0.69759088  0.63470914  1
  Pt  Pt118  1  0.69754264  0.56553674  0.63485818  1
  Pt  Pt119  1  0.56556324  0.69757559  0.63497723  1
  Pt  Pt120  1  0.63348177  0.43456591  0.69941903  1
  Pt  Pt121  1  0.43457733  0.63336838  0.69931362  1
  Pt  Pt122  1  0.56571365  0.63332057  0.69964309  1
  Pt  Pt123  1  0.63339794  0.56569133  0.69966729  1
  Pt  Pt124  1  0.43435495  0.36646747  0.69936474  1
  Pt  Pt125  1  0.36694385  0.43428731  0.69946545  1
  Pt  Pt126  1  0.63331605  0.43455712  0.30061342  1
  Pt  Pt127  1  0.43449698  0.63347643  0.30052317  1
  Pt  Pt128  1  0.56582326  0.36698029  0.69969622  1
  Pt  Pt129  1  0.36691247  0.56565384  0.69929647  1
  Pt  Pt130  1  0.63335747  0.56576340  0.30045877  1
  Pt  Pt131  1  0.56566028  0.63330400  0.30047544  1
  Pt  Pt132  1  0.43442175  0.36646197  0.30048130  1
  Pt  Pt133  1  0.36657428  0.43434817  0.30069066  1
  Pt  Pt134  1  0.56587834  0.36684642  0.30018075  1
  Pt  Pt135  1  0.36699206  0.56593103  0.30030422  1
  Pt  Pt136  1  0.50027099  0.75870404  0.49986887  1
  Pt  Pt137  1  0.75866890  0.50016758  0.49999930  1
  Pt  Pt138  1  0.50118224  0.24122730  0.50002263  1
  Pt  Pt139  1  0.24082949  0.50112931  0.49996852  1
  Pt  Pt140  1  0.49988670  0.50002982  0.23895447  1
  Pt  Pt141  1  0.49992696  0.49975282  0.76099070  1
  Pt  Pt142  1  0.30545611  0.30578118  0.50024254  1
  Pt  Pt143  1  0.69359597  0.30656433  0.50006301  1
  Pt  Pt144  1  0.30659620  0.69358802  0.49988491  1
  Pt  Pt145  1  0.69357594  0.69362629  0.50000081  1
  Pt  Pt146  1  0.75954341  0.43534762  0.56440740  1
  Pt  Pt147  1  0.43546303  0.75945930  0.56434553  1
  Pt  Pt148  1  0.75946007  0.43535208  0.43551774  1
  Pt  Pt149  1  0.43533238  0.75959605  0.43554752  1
  Pt  Pt150  1  0.56485833  0.75956901  0.56457745  1
  Pt  Pt151  1  0.75960303  0.56499707  0.56458095  1
  Pt  Pt152  1  0.75964861  0.56494532  0.43539656  1
  Pt  Pt153  1  0.56496437  0.75969038  0.43536711  1
  Pt  Pt154  1  0.43656540  0.24067735  0.56476747  1
  Pt  Pt155  1  0.23527835  0.43663161  0.56468620  1
  Pt  Pt156  1  0.24058247  0.43659450  0.43496936  1
  Pt  Pt157  1  0.43647761  0.24077975  0.43534204  1
  Pt  Pt158  1  0.56499820  0.24067377  0.56479347  1
  Pt  Pt159  1  0.24066135  0.56515462  0.56471792  1
  Pt  Pt160  1  0.56496239  0.24070449  0.43519489  1
  Pt  Pt161  1  0.24090143  0.56498151  0.43516567  1
  Pt  Pt162  1  0.50006203  0.30467658  0.69664693  1
  Pt  Pt163  1  0.30491667  0.49976349  0.69639453  1
  Pt  Pt164  1  0.50006970  0.30461490  0.30332598  1
  Pt  Pt165  1  0.30485443  0.50016744  0.30334687  1
  Pt  Pt166  1  0.50013502  0.69600950  0.69662165  1
  Pt  Pt167  1  0.69606038  0.50007242  0.69648512  1
  Pt  Pt168  1  0.69593302  0.50013448  0.30357763  1
  Pt  Pt169  1  0.50009456  0.69596980  0.30356242  1
  Pt  Pt170  1  0.43602803  0.43592995  0.23831895  1
  Pt  Pt171  1  0.43611710  0.56419753  0.23802523  1
  Pt  Pt172  1  0.56409409  0.43621714  0.23819212  1
  Pt  Pt173  1  0.43591280  0.43594041  0.76162139  1
  Pt  Pt174  1  0.56399856  0.56394160  0.23807612  1
  Pt  Pt175  1  0.43608669  0.56410872  0.76174179  1
  Pt  Pt176  1  0.56429024  0.43612509  0.76177782  1
  Pt  Pt177  1  0.56391683  0.56390038  0.76187170  1
  Pt  Pt178  1  0.75248392  0.62686088  0.49997668  1
  Pt  Pt179  1  0.62680898  0.75246423  0.49995439  1
  Pt  Pt180  1  0.75263639  0.37327493  0.49996854  1
  Pt  Pt181  1  0.37322009  0.75273828  0.49994921  1
  Pt  Pt182  1  0.62667923  0.24753243  0.49997957  1
  Pt  Pt183  1  0.24762512  0.62664261  0.49989336  1
  Au  Au184  1  0.37031634  0.23702274  0.50011173  1
  Au  Au185  1  0.23706145  0.37056944  0.50048777  1
  Au  Au186  1  0.76507963  0.50010741  0.36922389  1
  Au  Au187  1  0.50009385  0.76508010  0.36923087  1
  Au  Au188  1  0.76507865  0.50007983  0.63069205  1
  Au  Au189  1  0.50013806  0.76511178  0.63081601  1
  Au  Au190  1  0.23595614  0.50099714  0.36836422  1
  Au  Au191  1  0.50076110  0.23576339  0.36841008  1
  Au  Au192  1  0.50093408  0.23552122  0.63153247  1
  Au  Au193  1  0.23624292  0.50044232  0.63174953  1
  Au  Au194  1  0.63094306  0.50005369  0.23409662  1
  Au  Au195  1  0.50005468  0.63093511  0.23410321  1
  Au  Au196  1  0.36953893  0.49998916  0.23388959  1
  Au  Au197  1  0.50005477  0.36934096  0.23384932  1
  Au  Au198  1  0.63094090  0.50004044  0.76589693  1
  Au  Au199  1  0.50001431  0.63092676  0.76589183  1
  Au  Au200  1  0.50004002  0.36965901  0.76619226  1
  Au  Au201  1  0.36930100  0.49997490  0.76603260  1
  Au  Au202  1  0.30061868  0.30068452  0.36618005  1
  Au  Au203  1  0.30061676  0.30065201  0.63380230  1
  Au  Au204  1  0.70017463  0.29987393  0.36408689  1
  Au  Au205  1  0.29990545  0.70016517  0.36410613  1
  Au  Au206  1  0.70015150  0.29988398  0.63587963  1
  Au  Au207  1  0.29990619  0.70013374  0.63587853  1
  Au  Au208  1  0.70015897  0.70015803  0.36411031  1
  Au  Au209  1  0.70013090  0.70015167  0.63587415  1
  Au  Au210  1  0.63193413  0.30058414  0.70189246  1
  Au  Au211  1  0.30052111  0.63175127  0.70180980  1
  Au  Au212  1  0.30038917  0.36825693  0.70105167  1
  Au  Au213  1  0.36808049  0.30042122  0.70110857  1
  Au  Au214  1  0.63196890  0.30056946  0.29802870  1
  Au  Au215  1  0.30061608  0.63195403  0.29807164  1
  Au  Au216  1  0.63194650  0.69959046  0.70195173  1
  Au  Au217  1  0.69956104  0.63192263  0.70189846  1
  Au  Au218  1  0.36812934  0.30040730  0.29889346  1
  Au  Au219  1  0.30037897  0.36814081  0.29880985  1
  Au  Au220  1  0.69963939  0.36830022  0.70174421  1
  Au  Au221  1  0.36829763  0.69952807  0.70169976  1
  Au  Au222  1  0.69968726  0.63192985  0.29808217  1
  Au  Au223  1  0.63188226  0.69955505  0.29815827  1
  Au  Au224  1  0.69956568  0.36830745  0.29823959  1
  Au  Au225  1  0.36822815  0.69967607  0.29818705  1
  Au  Au226  1  0.62965964  0.76329702  0.36746712  1
  Au  Au227  1  0.76336636  0.62962096  0.36736496  1
  Au  Au228  1  0.76329317  0.62965219  0.63254110  1
  Au  Au229  1  0.62968036  0.76326997  0.63251820  1
  Au  Au230  1  0.76334134  0.37049588  0.36742213  1
  Au  Au231  1  0.37051714  0.76338599  0.36743169  1
  Au  Au232  1  0.76335929  0.37051648  0.63257728  1
  Au  Au233  1  0.37056730  0.76339460  0.63257473  1
  Au  Au234  1  0.62960034  0.23667215  0.36726491  1
  Au  Au235  1  0.23678486  0.62959897  0.36725410  1
  Au  Au236  1  0.62960539  0.23672345  0.63272739  1
  Au  Au237  1  0.23675058  0.62954731  0.63270232  1
  Au  Au238  1  0.37056955  0.23731315  0.36920475  1
  Au  Au239  1  0.23718868  0.37052816  0.36893520  1
  Au  Au240  1  0.37057588  0.23709720  0.63126031  1
  Au  Au241  1  0.23718285  0.37053554  0.63108181  1
  Au  Au242  1  0.62970569  0.62974428  0.23489908  1
  Au  Au243  1  0.37070845  0.63011540  0.23467631  1
  Au  Au244  1  0.63015185  0.37078485  0.23471703  1
  Au  Au245  1  0.62965436  0.62962176  0.76528000  1
  Au  Au246  1  0.37014295  0.37020991  0.23524526  1
  Au  Au247  1  0.63011062  0.37056183  0.76519632  1
  Au  Au248  1  0.37040467  0.62975524  0.76497460  1
  Au  Au249  1  0.37005139  0.37003545  0.76481316  1
