# generated using pymatgen
data_Pt61Au22
_symmetry_space_group_name_H-M   'P 1'
_cell_length_a   30.00000000
_cell_length_b   30.00000000
_cell_length_c   30.00000000
_cell_angle_alpha   90.00000000
_cell_angle_beta   90.00000000
_cell_angle_gamma   90.00000000
_symmetry_Int_Tables_number   1
_chemical_formula_structural   Pt61Au22
_chemical_formula_sum   'Pt183 Au66'
_cell_volume   27000.00000000
_cell_formula_units_Z   3
loop_
 _symmetry_equiv_pos_site_id
 _symmetry_equiv_pos_as_xyz
  1  'x, y, z'
loop_
 _atom_site_type_symbol
 _atom_site_label
 _atom_site_symmetry_multiplicity
 _atom_site_fract_x
 _atom_site_fract_y
 _atom_site_fract_z
 _atom_site_occupancy
  Pt  Pt0  1  0.49984563  0.49984563  0.50000000  1
  Pt  Pt1  1  0.43375377  0.43375377  0.50000000  1
  Pt  Pt2  1  0.56623350  0.43421136  0.50000000  1
  Pt  Pt3  1  0.43421136  0.56623350  0.50000000  1
  Pt  Pt4  1  0.56590710  0.56590710  0.50000000  1
  Pt  Pt5  1  0.49982603  0.43470104  0.56570918  1
  Pt  Pt6  1  0.43470104  0.49982603  0.56570918  1
  Pt  Pt7  1  0.49982603  0.43470104  0.43429082  1
  Pt  Pt8  1  0.43470104  0.49982603  0.43429082  1
  Pt  Pt9  1  0.50000064  0.56501228  0.56581861  1
  Pt  Pt10  1  0.56501228  0.50000064  0.56581861  1
  Pt  Pt11  1  0.56501228  0.50000064  0.43418139  1
  Pt  Pt12  1  0.50000064  0.56501228  0.43418139  1
  Pt  Pt13  1  0.63018569  0.50008683  0.50000000  1
  Pt  Pt14  1  0.50008683  0.63018569  0.50000000  1
  Pt  Pt15  1  0.50021636  0.37004805  0.50000000  1
  Pt  Pt16  1  0.37004805  0.50021636  0.50000000  1
  Pt  Pt17  1  0.49973724  0.49973724  0.36934132  1
  Pt  Pt18  1  0.49973724  0.49973724  0.63065868  1
  Pt  Pt19  1  0.63033055  0.43436656  0.56707585  1
  Pt  Pt20  1  0.43436656  0.63033055  0.56707585  1
  Pt  Pt21  1  0.43436656  0.63033055  0.43292415  1
  Pt  Pt22  1  0.63033055  0.43436656  0.43292415  1
  Pt  Pt23  1  0.63022945  0.56564358  0.56727693  1
  Pt  Pt24  1  0.56564358  0.63022945  0.56727693  1
  Pt  Pt25  1  0.43427112  0.36938071  0.56635204  1
  Pt  Pt26  1  0.36938071  0.43427112  0.56635204  1
  Pt  Pt27  1  0.63022945  0.56564358  0.43272307  1
  Pt  Pt28  1  0.56564358  0.63022945  0.43272307  1
  Pt  Pt29  1  0.43427112  0.36938071  0.43364796  1
  Pt  Pt30  1  0.36938071  0.43427112  0.43364796  1
  Pt  Pt31  1  0.56564296  0.36971305  0.56732462  1
  Pt  Pt32  1  0.36971305  0.56564296  0.56732462  1
  Pt  Pt33  1  0.56564296  0.36971305  0.43267538  1
  Pt  Pt34  1  0.36971305  0.56564296  0.43267538  1
  Pt  Pt35  1  0.43393482  0.43393482  0.36801322  1
  Pt  Pt36  1  0.43428872  0.56567247  0.36780420  1
  Pt  Pt37  1  0.56567247  0.43428872  0.36780420  1
  Pt  Pt38  1  0.56560893  0.56560893  0.36766445  1
  Pt  Pt39  1  0.43393482  0.43393482  0.63198678  1
  Pt  Pt40  1  0.43428872  0.56567247  0.63219580  1
  Pt  Pt41  1  0.56567247  0.43428872  0.63219580  1
  Pt  Pt42  1  0.56560893  0.56560893  0.63233555  1
  Pt  Pt43  1  0.63056515  0.63056515  0.50000000  1
  Pt  Pt44  1  0.63043958  0.36941564  0.50000000  1
  Pt  Pt45  1  0.36941564  0.63043958  0.50000000  1
  Pt  Pt46  1  0.36871794  0.36871794  0.50000000  1
  Pt  Pt47  1  0.63053067  0.50005415  0.36739798  1
  Pt  Pt48  1  0.50005415  0.63053067  0.36739798  1
  Pt  Pt49  1  0.63053067  0.50005415  0.63260202  1
  Pt  Pt50  1  0.50005415  0.63053067  0.63260202  1
  Pt  Pt51  1  0.49975192  0.36952103  0.36758822  1
  Pt  Pt52  1  0.36952103  0.49975192  0.36758822  1
  Pt  Pt53  1  0.49975192  0.36952103  0.63241178  1
  Pt  Pt54  1  0.36952103  0.49975192  0.63241178  1
  Pt  Pt55  1  0.43429546  0.30596384  0.50000000  1
  Pt  Pt56  1  0.30596384  0.43429546  0.50000000  1
  Pt  Pt57  1  0.56425066  0.30820024  0.50000000  1
  Pt  Pt58  1  0.30820024  0.56425066  0.50000000  1
  Pt  Pt59  1  0.43583500  0.69208933  0.50000000  1
  Pt  Pt60  1  0.69208933  0.43583500  0.50000000  1
  Pt  Pt61  1  0.56421496  0.69212628  0.50000000  1
  Pt  Pt62  1  0.69212628  0.56421496  0.50000000  1
  Pt  Pt63  1  0.49998522  0.30547743  0.56751457  1
  Pt  Pt64  1  0.30547743  0.49998522  0.56751457  1
  Pt  Pt65  1  0.49998522  0.30547743  0.43248543  1
  Pt  Pt66  1  0.30547743  0.49998522  0.43248543  1
  Pt  Pt67  1  0.69473513  0.50017508  0.56794017  1
  Pt  Pt68  1  0.50017508  0.69473513  0.56794017  1
  Pt  Pt69  1  0.50017508  0.69473513  0.43205983  1
  Pt  Pt70  1  0.69473513  0.50017508  0.43205983  1
  Pt  Pt71  1  0.49994629  0.43379014  0.69622433  1
  Pt  Pt72  1  0.43379014  0.49994629  0.69622433  1
  Pt  Pt73  1  0.49997858  0.56605543  0.69628472  1
  Pt  Pt74  1  0.56605543  0.49997858  0.69628472  1
  Pt  Pt75  1  0.49994629  0.43379014  0.30377567  1
  Pt  Pt76  1  0.43379014  0.49994629  0.30377567  1
  Pt  Pt77  1  0.49997858  0.56605543  0.30371528  1
  Pt  Pt78  1  0.56605543  0.49997858  0.30371528  1
  Pt  Pt79  1  0.63168423  0.63168423  0.36689045  1
  Pt  Pt80  1  0.63168423  0.63168423  0.63310955  1
  Pt  Pt81  1  0.63171409  0.36824889  0.36692795  1
  Pt  Pt82  1  0.36824889  0.63171409  0.36692795  1
  Pt  Pt83  1  0.63171409  0.36824889  0.63307205  1
  Pt  Pt84  1  0.36824889  0.63171409  0.63307205  1
  Pt  Pt85  1  0.36852670  0.36852670  0.36708029  1
  Pt  Pt86  1  0.36852670  0.36852670  0.63291971  1
  Pt  Pt87  1  0.63344429  0.30232886  0.56897063  1
  Pt  Pt88  1  0.30232886  0.63344429  0.56897063  1
  Pt  Pt89  1  0.63344429  0.30232886  0.43102937  1
  Pt  Pt90  1  0.30232886  0.63344429  0.43102937  1
  Pt  Pt91  1  0.36702191  0.30252286  0.56703391  1
  Pt  Pt92  1  0.30252286  0.36702191  0.56703391  1
  Pt  Pt93  1  0.36702191  0.30252286  0.43296609  1
  Pt  Pt94  1  0.30252286  0.36702191  0.43296609  1
  Pt  Pt95  1  0.63336815  0.69766272  0.56900276  1
  Pt  Pt96  1  0.69766272  0.63336815  0.56900276  1
  Pt  Pt97  1  0.63336815  0.69766272  0.43099724  1
  Pt  Pt98  1  0.69766272  0.63336815  0.43099724  1
  Pt  Pt99  1  0.69777340  0.36666107  0.56902241  1
  Pt  Pt100  1  0.36666107  0.69777340  0.56902241  1
  Pt  Pt101  1  0.69777340  0.36666107  0.43097759  1
  Pt  Pt102  1  0.36666107  0.69777340  0.43097759  1
  Pt  Pt103  1  0.43455211  0.30270468  0.36575151  1
  Pt  Pt104  1  0.30270468  0.43455211  0.36575151  1
  Pt  Pt105  1  0.56563187  0.30297367  0.36521814  1
  Pt  Pt106  1  0.30297367  0.56563187  0.36521814  1
  Pt  Pt107  1  0.43455211  0.30270468  0.63424849  1
  Pt  Pt108  1  0.30270468  0.43455211  0.63424849  1
  Pt  Pt109  1  0.43464429  0.69721032  0.36558758  1
  Pt  Pt110  1  0.69721032  0.43464429  0.36558758  1
  Pt  Pt111  1  0.56563187  0.30297367  0.63478186  1
  Pt  Pt112  1  0.30297367  0.56563187  0.63478186  1
  Pt  Pt113  1  0.69742992  0.56555587  0.36530329  1
  Pt  Pt114  1  0.56555587  0.69742992  0.36530329  1
  Pt  Pt115  1  0.69721032  0.43464429  0.63441242  1
  Pt  Pt116  1  0.43464429  0.69721032  0.63441242  1
  Pt  Pt117  1  0.69742992  0.56555587  0.63469671  1
  Pt  Pt118  1  0.56555587  0.69742992  0.63469671  1
  Pt  Pt119  1  0.63328715  0.43458996  0.69935042  1
  Pt  Pt120  1  0.43458996  0.63328715  0.69935042  1
  Pt  Pt121  1  0.56565293  0.63327475  0.69950635  1
  Pt  Pt122  1  0.63327475  0.56565293  0.69950635  1
  Pt  Pt123  1  0.43441052  0.36663581  0.69935826  1
  Pt  Pt124  1  0.36663581  0.43441052  0.69935826  1
  Pt  Pt125  1  0.63328715  0.43458996  0.30064958  1
  Pt  Pt126  1  0.43458996  0.63328715  0.30064958  1
  Pt  Pt127  1  0.56582162  0.36698043  0.69966790  1
  Pt  Pt128  1  0.36698043  0.56582162  0.69966790  1
  Pt  Pt129  1  0.63327475  0.56565293  0.30049365  1
  Pt  Pt130  1  0.56565293  0.63327475  0.30049365  1
  Pt  Pt131  1  0.43441052  0.36663581  0.30064174  1
  Pt  Pt132  1  0.36663581  0.43441052  0.30064174  1
  Pt  Pt133  1  0.56582162  0.36698043  0.30033210  1
  Pt  Pt134  1  0.36698043  0.56582162  0.30033210  1
  Pt  Pt135  1  0.50021230  0.75889996  0.50000000  1
  Pt  Pt136  1  0.75889996  0.50021230  0.50000000  1
  Pt  Pt137  1  0.50081470  0.24107348  0.50000000  1
  Pt  Pt138  1  0.24107348  0.50081470  0.50000000  1
  Pt  Pt139  1  0.49988332  0.49988332  0.23906928  1
  Pt  Pt140  1  0.49988332  0.49988332  0.76093072  1
  Pt  Pt141  1  0.30566907  0.30566907  0.50000000  1
  Pt  Pt142  1  0.69363592  0.30643885  0.50000000  1
  Pt  Pt143  1  0.30643885  0.69363592  0.50000000  1
  Pt  Pt144  1  0.69375780  0.69375780  0.50000000  1
  Pt  Pt145  1  0.75959344  0.43536333  0.56430134  1
  Pt  Pt146  1  0.43536333  0.75959344  0.56430134  1
  Pt  Pt147  1  0.75959344  0.43536333  0.43569866  1
  Pt  Pt148  1  0.43536333  0.75959344  0.43569866  1
  Pt  Pt149  1  0.56487320  0.75975266  0.56452335  1
  Pt  Pt150  1  0.75975266  0.56487320  0.56452335  1
  Pt  Pt151  1  0.75975266  0.56487320  0.43547665  1
  Pt  Pt152  1  0.56487320  0.75975266  0.43547665  1
  Pt  Pt153  1  0.43643360  0.24070289  0.56487382  1
  Pt  Pt154  1  0.24070289  0.43643360  0.56487382  1
  Pt  Pt155  1  0.24070289  0.43643360  0.43512618  1
  Pt  Pt156  1  0.43643360  0.24070289  0.43512618  1
  Pt  Pt157  1  0.56480775  0.24060526  0.56459776  1
  Pt  Pt158  1  0.24060526  0.56480775  0.56459776  1
  Pt  Pt159  1  0.56480775  0.24060526  0.43540224  1
  Pt  Pt160  1  0.24060526  0.56480775  0.43540224  1
  Pt  Pt161  1  0.50010764  0.30468804  0.69663022  1
  Pt  Pt162  1  0.30468804  0.50010764  0.69663022  1
  Pt  Pt163  1  0.50010764  0.30468804  0.30336978  1
  Pt  Pt164  1  0.30468804  0.50010764  0.30336978  1
  Pt  Pt165  1  0.50005561  0.69588602  0.69650116  1
  Pt  Pt166  1  0.69588602  0.50005561  0.69650116  1
  Pt  Pt167  1  0.69588602  0.50005561  0.30349884  1
  Pt  Pt168  1  0.50005561  0.69588602  0.30349884  1
  Pt  Pt169  1  0.43598790  0.43598790  0.23839379  1
  Pt  Pt170  1  0.43618694  0.56410581  0.23814055  1
  Pt  Pt171  1  0.56410581  0.43618694  0.23814055  1
  Pt  Pt172  1  0.43598790  0.43598790  0.76160621  1
  Pt  Pt173  1  0.56388286  0.56388286  0.23812480  1
  Pt  Pt174  1  0.43618694  0.56410581  0.76185945  1
  Pt  Pt175  1  0.56410581  0.43618694  0.76185945  1
  Pt  Pt176  1  0.56388286  0.56388286  0.76187520  1
  Pt  Pt177  1  0.75267506  0.62685131  0.50000000  1
  Pt  Pt178  1  0.62685131  0.75267506  0.50000000  1
  Pt  Pt179  1  0.75277251  0.37310391  0.50000000  1
  Pt  Pt180  1  0.37310391  0.75277251  0.50000000  1
  Pt  Pt181  1  0.62669195  0.24732129  0.50000000  1
  Pt  Pt182  1  0.24732129  0.62669195  0.50000000  1
  Au  Au183  1  0.37058102  0.23715525  0.50000000  1
  Au  Au184  1  0.23715525  0.37058102  0.50000000  1
  Au  Au185  1  0.76468766  0.50003068  0.36916875  1
  Au  Au186  1  0.50003068  0.76468766  0.36916875  1
  Au  Au187  1  0.76468766  0.50003068  0.63083125  1
  Au  Au188  1  0.50003068  0.76468766  0.63083125  1
  Au  Au189  1  0.23574992  0.50085063  0.36843317  1
  Au  Au190  1  0.50085063  0.23574992  0.36843317  1
  Au  Au191  1  0.50085063  0.23574992  0.63156683  1
  Au  Au192  1  0.23574992  0.50085063  0.63156683  1
  Au  Au193  1  0.63089266  0.50005381  0.23412688  1
  Au  Au194  1  0.50005381  0.63089266  0.23412688  1
  Au  Au195  1  0.36951145  0.49999550  0.23400781  1
  Au  Au196  1  0.49999550  0.36951145  0.23400781  1
  Au  Au197  1  0.63089266  0.50005381  0.76587312  1
  Au  Au198  1  0.50005381  0.63089266  0.76587312  1
  Au  Au199  1  0.49999550  0.36951145  0.76599219  1
  Au  Au200  1  0.36951145  0.49999550  0.76599219  1
  Au  Au201  1  0.30063920  0.30063920  0.36598718  1
  Au  Au202  1  0.30063920  0.30063920  0.63401282  1
  Au  Au203  1  0.70010072  0.29990744  0.36441764  1
  Au  Au204  1  0.29990744  0.70010072  0.36441764  1
  Au  Au205  1  0.70010072  0.29990744  0.63558236  1
  Au  Au206  1  0.29990744  0.70010072  0.63558236  1
  Au  Au207  1  0.70008779  0.70008779  0.36440532  1
  Au  Au208  1  0.70008779  0.70008779  0.63559468  1
  Au  Au209  1  0.63201975  0.30058268  0.70181879  1
  Au  Au210  1  0.30058268  0.63201975  0.70181879  1
  Au  Au211  1  0.30038842  0.36820488  0.70122397  1
  Au  Au212  1  0.36820488  0.30038842  0.70122397  1
  Au  Au213  1  0.63201975  0.30058268  0.29818121  1
  Au  Au214  1  0.30058268  0.63201975  0.29818121  1
  Au  Au215  1  0.63194171  0.69951042  0.70176672  1
  Au  Au216  1  0.69951042  0.63194171  0.70176672  1
  Au  Au217  1  0.36820488  0.30038842  0.29877603  1
  Au  Au218  1  0.30038842  0.36820488  0.29877603  1
  Au  Au219  1  0.69951944  0.36835034  0.70150769  1
  Au  Au220  1  0.36835034  0.69951944  0.70150769  1
  Au  Au221  1  0.69951042  0.63194171  0.29823328  1
  Au  Au222  1  0.63194171  0.69951042  0.29823328  1
  Au  Au223  1  0.69951944  0.36835034  0.29849231  1
  Au  Au224  1  0.36835034  0.69951944  0.29849231  1
  Au  Au225  1  0.62960757  0.76327999  0.36747347  1
  Au  Au226  1  0.76327999  0.62960757  0.36747347  1
  Au  Au227  1  0.76327999  0.62960757  0.63252653  1
  Au  Au228  1  0.62960757  0.76327999  0.63252653  1
  Au  Au229  1  0.76332807  0.37052286  0.36752000  1
  Au  Au230  1  0.37052286  0.76332807  0.36752000  1
  Au  Au231  1  0.76332807  0.37052286  0.63248000  1
  Au  Au232  1  0.37052286  0.76332807  0.63248000  1
  Au  Au233  1  0.62953096  0.23672982  0.36737890  1
  Au  Au234  1  0.23672982  0.62953096  0.36737890  1
  Au  Au235  1  0.62953096  0.23672982  0.63262110  1
  Au  Au236  1  0.23672982  0.62953096  0.63262110  1
  Au  Au237  1  0.37056878  0.23711222  0.36868120  1
  Au  Au238  1  0.23711222  0.37056878  0.36868120  1
  Au  Au239  1  0.37056878  0.23711222  0.63131880  1
  Au  Au240  1  0.23711222  0.37056878  0.63131880  1
  Au  Au241  1  0.62964905  0.62964905  0.23489673  1
  Au  Au242  1  0.37066395  0.63007324  0.23488422  1
  Au  Au243  1  0.63007324  0.37066395  0.23488422  1
  Au  Au244  1  0.62964905  0.62964905  0.76510327  1
  Au  Au245  1  0.37018942  0.37018942  0.23525406  1
  Au  Au246  1  0.63007324  0.37066395  0.76511578  1
  Au  Au247  1  0.37066395  0.63007324  0.76511578  1
  Au  Au248  1  0.37018942  0.37018942  0.76474594  1
