data_con4.5_full_ontop
_audit_creation_date              2023-10-31
_audit_creation_method            'Materials Studio'
_symmetry_space_group_name_H-M    'P1'
_symmetry_Int_Tables_number       1
_symmetry_cell_setting            triclinic
loop_
_symmetry_equiv_pos_as_xyz
  x,y,z
_cell_length_a                    30.0000
_cell_length_b                    30.0000
_cell_length_c                    30.0000
_cell_angle_alpha                 90.0000
_cell_angle_beta                  90.0000
_cell_angle_gamma                 90.0000
loop_
_atom_site_label
_atom_site_type_symbol
_atom_site_fract_x
_atom_site_fract_y
_atom_site_fract_z
_atom_site_U_iso_or_equiv
_atom_site_adp_type
_atom_site_occupancy
Ni1    Ni    0.55442   0.44615   0.54935   0.00000  Uiso   1.00
Ni2    Ni    0.53331   0.45557   0.42311   0.00000  Uiso   1.00
Ni3    Ni    0.46900   0.54243   0.57081   0.00000  Uiso   1.00
Ni4    Ni    0.44789   0.55184   0.44457   0.00000  Uiso   1.00
Ni5    Ni    0.64156   0.44526   0.53471   0.00000  Uiso   1.00
Ni6    Ni    0.54599   0.35834   0.54421   0.00000  Uiso   1.00
Ni7    Ni    0.62045   0.45467   0.40847   0.00000  Uiso   1.00
Ni8    Ni    0.52488   0.36775   0.41797   0.00000  Uiso   1.00
Ni9    Ni    0.64999   0.53307   0.53985   0.00000  Uiso   1.00
Ni10   Ni    0.45885   0.35923   0.55885   0.00000  Uiso   1.00
Ni11   Ni    0.62888   0.54248   0.41361   0.00000  Uiso   1.00
Ni12   Ni    0.43774   0.36865   0.43261   0.00000  Uiso   1.00
Ni13   Ni    0.56457   0.62935   0.56131   0.00000  Uiso   1.00
Ni14   Ni    0.37342   0.45551   0.58031   0.00000  Uiso   1.00
Ni15   Ni    0.54346   0.63876   0.43507   0.00000  Uiso   1.00
Ni16   Ni    0.35231   0.46492   0.45407   0.00000  Uiso   1.00
Ni17   Ni    0.57553   0.43674   0.67559   0.00000  Uiso   1.00
Ni18   Ni    0.51220   0.46498   0.29687   0.00000  Uiso   1.00
Ni19   Ni    0.49011   0.53301   0.69705   0.00000  Uiso   1.00
Ni20   Ni    0.42677   0.56125   0.31833   0.00000  Uiso   1.00
Ni21   Ni    0.66267   0.43585   0.66095   0.00000  Uiso   1.00
Ni22   Ni    0.56710   0.34893   0.67045   0.00000  Uiso   1.00
Ni23   Ni    0.59934   0.46409   0.28223   0.00000  Uiso   1.00
Ni24   Ni    0.50377   0.37717   0.29173   0.00000  Uiso   1.00
Ni25   Ni    0.73713   0.53218   0.52521   0.00000  Uiso   1.00
Ni26   Ni    0.45042   0.27142   0.55371   0.00000  Uiso   1.00
Ni27   Ni    0.71602   0.54159   0.39897   0.00000  Uiso   1.00
Ni28   Ni    0.42931   0.28083   0.42747   0.00000  Uiso   1.00
Ni29   Ni    0.67110   0.52366   0.66609   0.00000  Uiso   1.00
Ni30   Ni    0.47996   0.34982   0.68509   0.00000  Uiso   1.00
Ni31   Ni    0.60777   0.55190   0.28737   0.00000  Uiso   1.00
Ni32   Ni    0.41663   0.37806   0.30637   0.00000  Uiso   1.00
Ni33   Ni    0.58568   0.61993   0.68755   0.00000  Uiso   1.00
Ni34   Ni    0.39454   0.44609   0.70655   0.00000  Uiso   1.00
Ni35   Ni    0.52235   0.64817   0.30883   0.00000  Uiso   1.00
Ni36   Ni    0.33120   0.47434   0.32783   0.00000  Uiso   1.00
Ni37   Ni    0.74556   0.61999   0.53035   0.00000  Uiso   1.00
Ni38   Ni    0.36328   0.27231   0.56835   0.00000  Uiso   1.00
Ni39   Ni    0.72445   0.62940   0.40411   0.00000  Uiso   1.00
Ni40   Ni    0.34217   0.28173   0.44211   0.00000  Uiso   1.00
Ni41   Ni    0.66014   0.71626   0.55181   0.00000  Uiso   1.00
Ni42   Ni    0.27785   0.36859   0.58982   0.00000  Uiso   1.00
Ni43   Ni    0.63903   0.72568   0.42557   0.00000  Uiso   1.00
Ni44   Ni    0.25674   0.37800   0.46358   0.00000  Uiso   1.00
Ni45   Ni    0.38788   0.73116   0.59845   0.00000  Uiso   1.00
Ni46   Ni    0.29231   0.64424   0.60795   0.00000  Uiso   1.00
Ni47   Ni    0.27120   0.65365   0.48171   0.00000  Uiso   1.00
Ni48   Ni    0.36677   0.74057   0.47221   0.00000  Uiso   1.00
Ni49   Ni    0.75824   0.52276   0.65145   0.00000  Uiso   1.00
Ni50   Ni    0.47153   0.26201   0.67995   0.00000  Uiso   1.00
Ni51   Ni    0.69491   0.55100   0.27273   0.00000  Uiso   1.00
Ni52   Ni    0.40820   0.29025   0.30123   0.00000  Uiso   1.00
Ni53   Ni    0.59664   0.42733   0.80183   0.00000  Uiso   1.00
Ni54   Ni    0.49109   0.47439   0.17063   0.00000  Uiso   1.00
Ni55   Ni    0.51122   0.52360   0.82329   0.00000  Uiso   1.00
Ni56   Ni    0.40566   0.57067   0.19209   0.00000  Uiso   1.00
Ni57   Ni    0.72268   0.25653   0.50707   0.00000  Uiso   1.00
Ni58   Ni    0.70156   0.26594   0.38083   0.00000  Uiso   1.00
Ni59   Ni    0.30074   0.73205   0.61309   0.00000  Uiso   1.00
Ni60   Ni    0.27963   0.74147   0.48685   0.00000  Uiso   1.00
Ni61   Ni    0.38439   0.26290   0.69459   0.00000  Uiso   1.00
Ni62   Ni    0.76668   0.61058   0.65659   0.00000  Uiso   1.00
Ni63   Ni    0.70334   0.63882   0.27787   0.00000  Uiso   1.00
Ni64   Ni    0.32106   0.29114   0.31587   0.00000  Uiso   1.00
Ni65   Ni    0.29896   0.35918   0.71605   0.00000  Uiso   1.00
Ni66   Ni    0.68125   0.70685   0.67805   0.00000  Uiso   1.00
Ni67   Ni    0.61792   0.73509   0.29933   0.00000  Uiso   1.00
Ni68   Ni    0.23563   0.38742   0.33734   0.00000  Uiso   1.00
Ni69   Ni    0.40899   0.72175   0.72469   0.00000  Uiso   1.00
Ni70   Ni    0.31342   0.63483   0.73419   0.00000  Uiso   1.00
Ni71   Ni    0.34566   0.74999   0.34597   0.00000  Uiso   1.00
Ni72   Ni    0.25009   0.66307   0.35547   0.00000  Uiso   1.00
Ni73   Ni    0.48345   0.81808   0.58895   0.00000  Uiso   1.00
Ni74   Ni    0.19674   0.55732   0.61745   0.00000  Uiso   1.00
Ni75   Ni    0.46234   0.82749   0.46271   0.00000  Uiso   1.00
Ni76   Ni    0.17563   0.56674   0.49121   0.00000  Uiso   1.00
Pt77   Pt    0.50126   0.49888   0.49693   0.00000  Uiso   1.00
Pt78   Pt    0.55934   0.53793   0.55537   0.00000  Uiso   1.00
Pt79   Pt    0.53822   0.54734   0.42913   0.00000  Uiso   1.00
Pt80   Pt    0.46376   0.45101   0.56487   0.00000  Uiso   1.00
Pt81   Pt    0.44265   0.46042   0.43863   0.00000  Uiso   1.00
Pt82   Pt    0.59121   0.49482   0.48159   0.00000  Uiso   1.00
Pt83   Pt    0.49564   0.40790   0.49109   0.00000  Uiso   1.00
Pt84   Pt    0.50684   0.58990   0.50279   0.00000  Uiso   1.00
Pt85   Pt    0.41127   0.50298   0.51229   0.00000  Uiso   1.00
Pt86   Pt    0.58307   0.40668   0.47638   0.00000  Uiso   1.00
Pt87   Pt    0.52237   0.48947   0.62317   0.00000  Uiso   1.00
Pt88   Pt    0.48014   0.50829   0.37070   0.00000  Uiso   1.00
Pt89   Pt    0.41646   0.59444   0.51824   0.00000  Uiso   1.00
Pt90   Pt    0.59683   0.58580   0.48743   0.00000  Uiso   1.00
Pt91   Pt    0.40568   0.41196   0.50644   0.00000  Uiso   1.00
Pt92   Pt    0.61232   0.48540   0.60783   0.00000  Uiso   1.00
Pt93   Pt    0.57010   0.50423   0.35535   0.00000  Uiso   1.00
Pt94   Pt    0.51675   0.39849   0.61733   0.00000  Uiso   1.00
Pt95   Pt    0.47453   0.41731   0.36485   0.00000  Uiso   1.00
Pt96   Pt    0.52795   0.58049   0.62903   0.00000  Uiso   1.00
Pt97   Pt    0.48573   0.59931   0.37655   0.00000  Uiso   1.00
Pt98   Pt    0.43238   0.49357   0.63853   0.00000  Uiso   1.00
Pt99   Pt    0.39016   0.51239   0.38605   0.00000  Uiso   1.00
Pt100  Pt    0.47544   0.63248   0.57645   0.00000  Uiso   1.00
Pt101  Pt    0.45433   0.64190   0.45021   0.00000  Uiso   1.00
Pt102  Pt    0.37987   0.54556   0.58595   0.00000  Uiso   1.00
Pt103  Pt    0.35875   0.55498   0.45971   0.00000  Uiso   1.00
Pt104  Pt    0.56196   0.41609   0.35014   0.00000  Uiso   1.00
Pt105  Pt    0.60418   0.39726   0.60262   0.00000  Uiso   1.00
Pt106  Pt    0.67864   0.49360   0.46688   0.00000  Uiso   1.00
Pt107  Pt    0.48750   0.31976   0.48588   0.00000  Uiso   1.00
Pt108  Pt    0.43757   0.58503   0.64448   0.00000  Uiso   1.00
Pt109  Pt    0.39535   0.60386   0.39200   0.00000  Uiso   1.00
Pt110  Pt    0.61794   0.57639   0.61367   0.00000  Uiso   1.00
Pt111  Pt    0.42680   0.40255   0.63268   0.00000  Uiso   1.00
Pt112  Pt    0.57572   0.59521   0.36119   0.00000  Uiso   1.00
Pt113  Pt    0.38457   0.42138   0.38020   0.00000  Uiso   1.00
Pt114  Pt    0.51204   0.68136   0.50874   0.00000  Uiso   1.00
Pt115  Pt    0.32089   0.50752   0.52774   0.00000  Uiso   1.00
Pt116  Pt    0.63573   0.35451   0.52892   0.00000  Uiso   1.00
Pt117  Pt    0.61462   0.36393   0.40268   0.00000  Uiso   1.00
Pt118  Pt    0.67319   0.40242   0.46099   0.00000  Uiso   1.00
Pt119  Pt    0.57762   0.31550   0.47049   0.00000  Uiso   1.00
Pt120  Pt    0.58045   0.52851   0.68161   0.00000  Uiso   1.00
Pt121  Pt    0.48488   0.44160   0.69111   0.00000  Uiso   1.00
Pt122  Pt    0.51711   0.55675   0.30289   0.00000  Uiso   1.00
Pt123  Pt    0.42154   0.46984   0.31239   0.00000  Uiso   1.00
Pt124  Pt    0.65491   0.62485   0.54587   0.00000  Uiso   1.00
Pt125  Pt    0.63380   0.63426   0.41963   0.00000  Uiso   1.00
Pt126  Pt    0.36819   0.36409   0.57437   0.00000  Uiso   1.00
Pt127  Pt    0.34708   0.37350   0.44813   0.00000  Uiso   1.00
Pt128  Pt    0.68678   0.58174   0.47209   0.00000  Uiso   1.00
Pt129  Pt    0.40006   0.32098   0.50059   0.00000  Uiso   1.00
Pt130  Pt    0.60241   0.67682   0.49329   0.00000  Uiso   1.00
Pt131  Pt    0.31570   0.41606   0.52179   0.00000  Uiso   1.00
Pt132  Pt    0.41952   0.68832   0.52473   0.00000  Uiso   1.00
Pt133  Pt    0.32394   0.60140   0.53423   0.00000  Uiso   1.00
Pt134  Pt    0.38205   0.64041   0.59266   0.00000  Uiso   1.00
Pt135  Pt    0.36094   0.64983   0.46642   0.00000  Uiso   1.00
Pt136  Pt    0.69975   0.48418   0.59312   0.00000  Uiso   1.00
Pt137  Pt    0.65753   0.50301   0.34064   0.00000  Uiso   1.00
Pt138  Pt    0.50861   0.31034   0.61212   0.00000  Uiso   1.00
Pt139  Pt    0.46638   0.32917   0.35964   0.00000  Uiso   1.00
Pt140  Pt    0.53315   0.67195   0.63498   0.00000  Uiso   1.00
Pt141  Pt    0.34200   0.49811   0.65398   0.00000  Uiso   1.00
Pt142  Pt    0.49092   0.69078   0.38250   0.00000  Uiso   1.00
Pt143  Pt    0.29978   0.51694   0.40150   0.00000  Uiso   1.00
Pt144  Pt    0.69431   0.39300   0.58723   0.00000  Uiso   1.00
Pt145  Pt    0.65208   0.41183   0.33475   0.00000  Uiso   1.00
Pt146  Pt    0.59873   0.30609   0.59673   0.00000  Uiso   1.00
Pt147  Pt    0.55651   0.32491   0.34425   0.00000  Uiso   1.00
Pt148  Pt    0.73131   0.44143   0.51942   0.00000  Uiso   1.00
Pt149  Pt    0.54016   0.26759   0.53842   0.00000  Uiso   1.00
Pt150  Pt    0.71019   0.45084   0.39318   0.00000  Uiso   1.00
Pt151  Pt    0.51905   0.27701   0.41218   0.00000  Uiso   1.00
Pt152  Pt    0.49655   0.62307   0.70269   0.00000  Uiso   1.00
Pt153  Pt    0.40098   0.53615   0.71219   0.00000  Uiso   1.00
Pt154  Pt    0.43322   0.65131   0.32397   0.00000  Uiso   1.00
Pt155  Pt    0.33764   0.56439   0.33347   0.00000  Uiso   1.00
Pt156  Pt    0.70789   0.57232   0.59833   0.00000  Uiso   1.00
Pt157  Pt    0.66567   0.59115   0.34585   0.00000  Uiso   1.00
Pt158  Pt    0.42118   0.31157   0.62683   0.00000  Uiso   1.00
Pt159  Pt    0.37895   0.33039   0.37435   0.00000  Uiso   1.00
Pt160  Pt    0.62352   0.66741   0.61953   0.00000  Uiso   1.00
Pt161  Pt    0.58130   0.68623   0.36705   0.00000  Uiso   1.00
Pt162  Pt    0.33681   0.40665   0.64803   0.00000  Uiso   1.00
Pt163  Pt    0.29459   0.42548   0.39555   0.00000  Uiso   1.00
Pt164  Pt    0.57101   0.71940   0.56695   0.00000  Uiso   1.00
Pt165  Pt    0.54990   0.72882   0.44071   0.00000  Uiso   1.00
Pt166  Pt    0.28429   0.45865   0.59545   0.00000  Uiso   1.00
Pt167  Pt    0.26318   0.46806   0.46921   0.00000  Uiso   1.00
Pt168  Pt    0.44063   0.67891   0.65097   0.00000  Uiso   1.00
Pt169  Pt    0.39840   0.69773   0.39849   0.00000  Uiso   1.00
Pt170  Pt    0.34505   0.59199   0.66047   0.00000  Uiso   1.00
Pt171  Pt    0.30283   0.61081   0.40799   0.00000  Uiso   1.00
Pt172  Pt    0.47763   0.72733   0.58316   0.00000  Uiso   1.00
Pt173  Pt    0.28648   0.55349   0.60216   0.00000  Uiso   1.00
Pt174  Pt    0.45652   0.73675   0.45692   0.00000  Uiso   1.00
Pt175  Pt    0.26537   0.56291   0.47592   0.00000  Uiso   1.00
Pt176  Pt    0.45903   0.51771   0.24446   0.00000  Uiso   1.00
Pt177  Pt    0.54348   0.48005   0.74941   0.00000  Uiso   1.00
Pt178  Pt    0.67014   0.30854   0.45450   0.00000  Uiso   1.00
Pt179  Pt    0.69240   0.67272   0.47793   0.00000  Uiso   1.00
Pt180  Pt    0.31011   0.32504   0.51594   0.00000  Uiso   1.00
Pt181  Pt    0.32939   0.69258   0.54012   0.00000  Uiso   1.00
Pt182  Pt    0.65684   0.34510   0.65516   0.00000  Uiso   1.00
Pt183  Pt    0.59351   0.37334   0.27644   0.00000  Uiso   1.00
Pt184  Pt    0.76877   0.48934   0.45149   0.00000  Uiso   1.00
Pt185  Pt    0.48205   0.22858   0.47999   0.00000  Uiso   1.00
Pt186  Pt    0.63343   0.47599   0.73407   0.00000  Uiso   1.00
Pt187  Pt    0.54899   0.51364   0.22911   0.00000  Uiso   1.00
Pt188  Pt    0.53786   0.38907   0.74357   0.00000  Uiso   1.00
Pt189  Pt    0.45341   0.42673   0.23861   0.00000  Uiso   1.00
Pt190  Pt    0.54906   0.57107   0.75527   0.00000  Uiso   1.00
Pt191  Pt    0.46462   0.60873   0.25031   0.00000  Uiso   1.00
Pt192  Pt    0.45349   0.48415   0.76477   0.00000  Uiso   1.00
Pt193  Pt    0.36905   0.52181   0.25981   0.00000  Uiso   1.00
Pt194  Pt    0.67602   0.61543   0.67211   0.00000  Uiso   1.00
Pt195  Pt    0.61269   0.64367   0.29339   0.00000  Uiso   1.00
Pt196  Pt    0.38930   0.35468   0.70061   0.00000  Uiso   1.00
Pt197  Pt    0.32597   0.38292   0.32189   0.00000  Uiso   1.00
Pt198  Pt    0.72912   0.34658   0.51271   0.00000  Uiso   1.00
Pt199  Pt    0.70801   0.35600   0.38647   0.00000  Uiso   1.00
Pt200  Pt    0.63354   0.25966   0.52221   0.00000  Uiso   1.00
Pt201  Pt    0.61243   0.26908   0.39597   0.00000  Uiso   1.00
Pt202  Pt    0.40317   0.63100   0.71890   0.00000  Uiso   1.00
Pt203  Pt    0.33983   0.65924   0.34018   0.00000  Uiso   1.00
Pt204  Pt    0.51509   0.77524   0.51523   0.00000  Uiso   1.00
Pt205  Pt    0.22837   0.51448   0.54373   0.00000  Uiso   1.00
Pt206  Pt    0.62529   0.38785   0.72886   0.00000  Uiso   1.00
Pt207  Pt    0.54085   0.42550   0.22390   0.00000  Uiso   1.00
Pt208  Pt    0.37424   0.61327   0.26576   0.00000  Uiso   1.00
Pt209  Pt    0.45869   0.57562   0.77072   0.00000  Uiso   1.00
Pt210  Pt    0.63905   0.56697   0.73991   0.00000  Uiso   1.00
Pt211  Pt    0.36346   0.43079   0.25396   0.00000  Uiso   1.00
Pt212  Pt    0.55461   0.60463   0.23495   0.00000  Uiso   1.00
Pt213  Pt    0.44791   0.39314   0.75892   0.00000  Uiso   1.00
Pt214  Pt    0.77421   0.58051   0.45738   0.00000  Uiso   1.00
Pt215  Pt    0.39192   0.23284   0.49538   0.00000  Uiso   1.00
Pt216  Pt    0.64903   0.31796   0.32826   0.00000  Uiso   1.00
Pt217  Pt    0.69125   0.29913   0.58074   0.00000  Uiso   1.00
Pt218  Pt    0.76571   0.39546   0.44500   0.00000  Uiso   1.00
Pt219  Pt    0.57457   0.22162   0.46400   0.00000  Uiso   1.00
Pt220  Pt    0.28900   0.33446   0.38970   0.00000  Uiso   1.00
Pt221  Pt    0.67129   0.68213   0.35169   0.00000  Uiso   1.00
Pt222  Pt    0.33122   0.31563   0.64218   0.00000  Uiso   1.00
Pt223  Pt    0.71351   0.66330   0.60417   0.00000  Uiso   1.00
Pt224  Pt    0.60761   0.76828   0.49924   0.00000  Uiso   1.00
Pt225  Pt    0.22532   0.42061   0.53724   0.00000  Uiso   1.00
Pt226  Pt    0.35050   0.68317   0.66636   0.00000  Uiso   1.00
Pt227  Pt    0.30828   0.70199   0.41388   0.00000  Uiso   1.00
Pt228  Pt    0.42496   0.77950   0.53062   0.00000  Uiso   1.00
Pt229  Pt    0.23382   0.60566   0.54962   0.00000  Uiso   1.00
Pt230  Pt    0.75242   0.43202   0.64566   0.00000  Uiso   1.00
Pt231  Pt    0.56127   0.25818   0.66466   0.00000  Uiso   1.00
Pt232  Pt    0.68908   0.46026   0.26694   0.00000  Uiso   1.00
Pt233  Pt    0.49794   0.28642   0.28594   0.00000  Uiso   1.00
Pt234  Pt    0.78988   0.47992   0.57773   0.00000  Uiso   1.00
Pt235  Pt    0.74766   0.49875   0.32525   0.00000  Uiso   1.00
Pt236  Pt    0.50316   0.21917   0.60623   0.00000  Uiso   1.00
Pt237  Pt    0.46094   0.23799   0.35375   0.00000  Uiso   1.00
Pt238  Pt    0.59212   0.70999   0.69319   0.00000  Uiso   1.00
Pt239  Pt    0.52879   0.73823   0.31447   0.00000  Uiso   1.00
Pt240  Pt    0.30540   0.44923   0.72169   0.00000  Uiso   1.00
Pt241  Pt    0.24207   0.47747   0.34297   0.00000  Uiso   1.00
Pt242  Pt    0.49874   0.71792   0.70940   0.00000  Uiso   1.00
Pt243  Pt    0.30759   0.54408   0.72840   0.00000  Uiso   1.00
Pt244  Pt    0.43540   0.74616   0.33068   0.00000  Uiso   1.00
Pt245  Pt    0.24426   0.57232   0.34968   0.00000  Uiso   1.00
Pt246  Pt    0.53620   0.76582   0.64147   0.00000  Uiso   1.00
Pt247  Pt    0.49398   0.78465   0.38899   0.00000  Uiso   1.00
Pt248  Pt    0.24948   0.50507   0.66997   0.00000  Uiso   1.00
Pt249  Pt    0.20726   0.52389   0.41749   0.00000  Uiso   1.00
Pt250  Pt    0.44527   0.33859   0.23340   0.00000  Uiso   1.00
Pt251  Pt    0.72086   0.47477   0.71936   0.00000  Uiso   1.00
Pt252  Pt    0.52972   0.30093   0.73836   0.00000  Uiso   1.00
Pt253  Pt    0.63642   0.51242   0.21440   0.00000  Uiso   1.00
Pt254  Pt    0.79532   0.57110   0.58362   0.00000  Uiso   1.00
Pt255  Pt    0.75310   0.58993   0.33114   0.00000  Uiso   1.00
Pt256  Pt    0.41304   0.22343   0.62162   0.00000  Uiso   1.00
Pt257  Pt    0.37081   0.24225   0.36914   0.00000  Uiso   1.00
Pt258  Pt    0.55426   0.66254   0.76122   0.00000  Uiso   1.00
Pt259  Pt    0.46981   0.70019   0.25626   0.00000  Uiso   1.00
Pt260  Pt    0.36311   0.48870   0.78022   0.00000  Uiso   1.00
Pt261  Pt    0.27867   0.52635   0.27526   0.00000  Uiso   1.00
Pt262  Pt    0.78683   0.38605   0.57124   0.00000  Uiso   1.00
Pt263  Pt    0.74460   0.40487   0.31876   0.00000  Uiso   1.00
Pt264  Pt    0.55346   0.23104   0.33776   0.00000  Uiso   1.00
Pt265  Pt    0.59568   0.21221   0.59024   0.00000  Uiso   1.00
Pt266  Pt    0.58650   0.77769   0.37300   0.00000  Uiso   1.00
Pt267  Pt    0.62872   0.75887   0.62548   0.00000  Uiso   1.00
Pt268  Pt    0.24643   0.41119   0.66348   0.00000  Uiso   1.00
Pt269  Pt    0.20421   0.43002   0.41100   0.00000  Uiso   1.00
Pt270  Pt    0.44607   0.77008   0.65686   0.00000  Uiso   1.00
Pt271  Pt    0.21271   0.61507   0.42338   0.00000  Uiso   1.00
Pt272  Pt    0.40385   0.78891   0.40438   0.00000  Uiso   1.00
Pt273  Pt    0.25493   0.59625   0.67586   0.00000  Uiso   1.00
Pt274  Pt    0.71542   0.38359   0.71347   0.00000  Uiso   1.00
Pt275  Pt    0.63097   0.42124   0.20851   0.00000  Uiso   1.00
Pt276  Pt    0.61985   0.29667   0.72297   0.00000  Uiso   1.00
Pt277  Pt    0.53540   0.33433   0.21801   0.00000  Uiso   1.00
Pt278  Pt    0.82688   0.52835   0.50991   0.00000  Uiso   1.00
Pt279  Pt    0.44459   0.18067   0.54792   0.00000  Uiso   1.00
Pt280  Pt    0.80577   0.53776   0.38368   0.00000  Uiso   1.00
Pt281  Pt    0.42348   0.19009   0.42168   0.00000  Uiso   1.00
Pt282  Pt    0.60156   0.51910   0.80785   0.00000  Uiso   1.00
Pt283  Pt    0.50599   0.43218   0.81735   0.00000  Uiso   1.00
Pt284  Pt    0.49600   0.56617   0.17665   0.00000  Uiso   1.00
Pt285  Pt    0.40043   0.47925   0.18615   0.00000  Uiso   1.00
Pt286  Pt    0.72900   0.56291   0.72457   0.00000  Uiso   1.00
Pt287  Pt    0.64456   0.60056   0.21961   0.00000  Uiso   1.00
Pt288  Pt    0.35784   0.33981   0.24811   0.00000  Uiso   1.00
Pt289  Pt    0.44229   0.30215   0.75307   0.00000  Uiso   1.00
Pt290  Pt    0.64464   0.65799   0.74577   0.00000  Uiso   1.00
Pt291  Pt    0.56019   0.69565   0.24081   0.00000  Uiso   1.00
Pt292  Pt    0.35792   0.39724   0.77427   0.00000  Uiso   1.00
Pt293  Pt    0.27348   0.43489   0.26931   0.00000  Uiso   1.00
Pt294  Pt    0.75023   0.33717   0.63895   0.00000  Uiso   1.00
Pt295  Pt    0.65466   0.25025   0.64845   0.00000  Uiso   1.00
Pt296  Pt    0.68689   0.36541   0.26023   0.00000  Uiso   1.00
Pt297  Pt    0.59132   0.27849   0.26973   0.00000  Uiso   1.00
Pt298  Pt    0.76052   0.30400   0.43905   0.00000  Uiso   1.00
Pt299  Pt    0.66495   0.21708   0.44855   0.00000  Uiso   1.00
Pt300  Pt    0.33753   0.78072   0.54533   0.00000  Uiso   1.00
Pt301  Pt    0.24196   0.69380   0.55483   0.00000  Uiso   1.00
Pt302  Pt    0.82469   0.43350   0.50321   0.00000  Uiso   1.00
Pt303  Pt    0.80358   0.44291   0.37697   0.00000  Uiso   1.00
Pt304  Pt    0.53797   0.17274   0.53171   0.00000  Uiso   1.00
Pt305  Pt    0.51686   0.18216   0.40547   0.00000  Uiso   1.00
Pt306  Pt    0.75048   0.71177   0.53637   0.00000  Uiso   1.00
Pt307  Pt    0.72937   0.72118   0.41013   0.00000  Uiso   1.00
Pt308  Pt    0.27262   0.27717   0.58387   0.00000  Uiso   1.00
Pt309  Pt    0.25151   0.28658   0.45763   0.00000  Uiso   1.00
Pt310  Pt    0.78235   0.66866   0.46259   0.00000  Uiso   1.00
Pt311  Pt    0.30449   0.23406   0.51009   0.00000  Uiso   1.00
Pt312  Pt    0.69799   0.76374   0.48379   0.00000  Uiso   1.00
Pt313  Pt    0.22013   0.32914   0.53129   0.00000  Uiso   1.00
Pt314  Pt    0.37729   0.70715   0.27225   0.00000  Uiso   1.00
Pt315  Pt    0.46174   0.66949   0.77721   0.00000  Uiso   1.00
Pt316  Pt    0.36617   0.58257   0.78671   0.00000  Uiso   1.00
Pt317  Pt    0.28172   0.62023   0.28175   0.00000  Uiso   1.00
Pt318  Pt    0.57320   0.81425   0.57366   0.00000  Uiso   1.00
Pt319  Pt    0.19091   0.46658   0.61166   0.00000  Uiso   1.00
Pt320  Pt    0.55209   0.82366   0.44742   0.00000  Uiso   1.00
Pt321  Pt    0.16980   0.47599   0.48542   0.00000  Uiso   1.00
