data_image0
_chemical_formula_structural       Ni76Pt245H
_chemical_formula_sum              "Ni76 Pt245 H1"
_cell_length_a       30
_cell_length_b       30
_cell_length_c       30
_cell_angle_alpha    90
_cell_angle_beta     90
_cell_angle_gamma    90

_space_group_name_H-M_alt    "P 1"
_space_group_IT_number       1

loop_
  _space_group_symop_operation_xyz
  'x, y, z'

loop_
  _atom_site_type_symbol
  _atom_site_label
  _atom_site_symmetry_multiplicity
  _atom_site_fract_x
  _atom_site_fract_y
  _atom_site_fract_z
  _atom_site_occupancy
  Ni  Ni1       1.0  0.55442  0.44615  0.54935  1.0000
  Ni  Ni2       1.0  0.53331  0.45557  0.42311  1.0000
  Ni  Ni3       1.0  0.46900  0.54243  0.57081  1.0000
  Ni  Ni4       1.0  0.44789  0.55184  0.44457  1.0000
  Ni  Ni5       1.0  0.64156  0.44526  0.53471  1.0000
  Ni  Ni6       1.0  0.54599  0.35834  0.54421  1.0000
  Ni  Ni7       1.0  0.62045  0.45467  0.40847  1.0000
  Ni  Ni8       1.0  0.52488  0.36775  0.41797  1.0000
  Ni  Ni9       1.0  0.64999  0.53307  0.53985  1.0000
  Ni  Ni10      1.0  0.45885  0.35923  0.55885  1.0000
  Ni  Ni11      1.0  0.62888  0.54248  0.41361  1.0000
  Ni  Ni12      1.0  0.43774  0.36865  0.43261  1.0000
  Ni  Ni13      1.0  0.56457  0.62935  0.56131  1.0000
  Ni  Ni14      1.0  0.37342  0.45551  0.58031  1.0000
  Ni  Ni15      1.0  0.54346  0.63876  0.43507  1.0000
  Ni  Ni16      1.0  0.35231  0.46492  0.45407  1.0000
  Ni  Ni17      1.0  0.57553  0.43674  0.67559  1.0000
  Ni  Ni18      1.0  0.51220  0.46498  0.29687  1.0000
  Ni  Ni19      1.0  0.49011  0.53301  0.69705  1.0000
  Ni  Ni20      1.0  0.42677  0.56125  0.31833  1.0000
  Ni  Ni21      1.0  0.66267  0.43585  0.66095  1.0000
  Ni  Ni22      1.0  0.56710  0.34893  0.67045  1.0000
  Ni  Ni23      1.0  0.59934  0.46409  0.28223  1.0000
  Ni  Ni24      1.0  0.50377  0.37717  0.29173  1.0000
  Ni  Ni25      1.0  0.73713  0.53218  0.52521  1.0000
  Ni  Ni26      1.0  0.45042  0.27142  0.55371  1.0000
  Ni  Ni27      1.0  0.71602  0.54159  0.39897  1.0000
  Ni  Ni28      1.0  0.42931  0.28083  0.42747  1.0000
  Ni  Ni29      1.0  0.67110  0.52366  0.66609  1.0000
  Ni  Ni30      1.0  0.47996  0.34982  0.68509  1.0000
  Ni  Ni31      1.0  0.60777  0.55190  0.28737  1.0000
  Ni  Ni32      1.0  0.41663  0.37806  0.30637  1.0000
  Ni  Ni33      1.0  0.58568  0.61993  0.68755  1.0000
  Ni  Ni34      1.0  0.39454  0.44609  0.70655  1.0000
  Ni  Ni35      1.0  0.52235  0.64817  0.30883  1.0000
  Ni  Ni36      1.0  0.33120  0.47434  0.32783  1.0000
  Ni  Ni37      1.0  0.74556  0.61999  0.53035  1.0000
  Ni  Ni38      1.0  0.36328  0.27231  0.56835  1.0000
  Ni  Ni39      1.0  0.72445  0.62940  0.40411  1.0000
  Ni  Ni40      1.0  0.34217  0.28173  0.44211  1.0000
  Ni  Ni41      1.0  0.66014  0.71626  0.55181  1.0000
  Ni  Ni42      1.0  0.27785  0.36859  0.58982  1.0000
  Ni  Ni43      1.0  0.63903  0.72568  0.42557  1.0000
  Ni  Ni44      1.0  0.25674  0.37800  0.46358  1.0000
  Ni  Ni45      1.0  0.38788  0.73116  0.59845  1.0000
  Ni  Ni46      1.0  0.29231  0.64424  0.60795  1.0000
  Ni  Ni47      1.0  0.27120  0.65365  0.48171  1.0000
  Ni  Ni48      1.0  0.36677  0.74057  0.47221  1.0000
  Ni  Ni49      1.0  0.75824  0.52276  0.65145  1.0000
  Ni  Ni50      1.0  0.47153  0.26201  0.67995  1.0000
  Ni  Ni51      1.0  0.69491  0.55100  0.27273  1.0000
  Ni  Ni52      1.0  0.40820  0.29025  0.30123  1.0000
  Ni  Ni53      1.0  0.59664  0.42733  0.80183  1.0000
  Ni  Ni54      1.0  0.49109  0.47439  0.17063  1.0000
  Ni  Ni55      1.0  0.51122  0.52360  0.82329  1.0000
  Ni  Ni56      1.0  0.40566  0.57067  0.19209  1.0000
  Ni  Ni57      1.0  0.72268  0.25653  0.50707  1.0000
  Ni  Ni58      1.0  0.70156  0.26594  0.38083  1.0000
  Ni  Ni59      1.0  0.30074  0.73205  0.61309  1.0000
  Ni  Ni60      1.0  0.27963  0.74147  0.48685  1.0000
  Ni  Ni61      1.0  0.38439  0.26290  0.69459  1.0000
  Ni  Ni62      1.0  0.76668  0.61058  0.65659  1.0000
  Ni  Ni63      1.0  0.70334  0.63882  0.27787  1.0000
  Ni  Ni64      1.0  0.32106  0.29114  0.31587  1.0000
  Ni  Ni65      1.0  0.29896  0.35918  0.71605  1.0000
  Ni  Ni66      1.0  0.68125  0.70685  0.67805  1.0000
  Ni  Ni67      1.0  0.61792  0.73509  0.29933  1.0000
  Ni  Ni68      1.0  0.23563  0.38742  0.33734  1.0000
  Ni  Ni69      1.0  0.40899  0.72175  0.72469  1.0000
  Ni  Ni70      1.0  0.31342  0.63483  0.73419  1.0000
  Ni  Ni71      1.0  0.34566  0.74999  0.34597  1.0000
  Ni  Ni72      1.0  0.25009  0.66307  0.35547  1.0000
  Ni  Ni73      1.0  0.48345  0.81808  0.58895  1.0000
  Ni  Ni74      1.0  0.19674  0.55732  0.61745  1.0000
  Ni  Ni75      1.0  0.46234  0.82749  0.46271  1.0000
  Ni  Ni76      1.0  0.17563  0.56674  0.49121  1.0000
  Pt  Pt1       1.0  0.50126  0.49888  0.49693  1.0000
  Pt  Pt2       1.0  0.55934  0.53793  0.55537  1.0000
  Pt  Pt3       1.0  0.53822  0.54734  0.42913  1.0000
  Pt  Pt4       1.0  0.46376  0.45101  0.56487  1.0000
  Pt  Pt5       1.0  0.44265  0.46042  0.43863  1.0000
  Pt  Pt6       1.0  0.59121  0.49482  0.48159  1.0000
  Pt  Pt7       1.0  0.49564  0.40790  0.49109  1.0000
  Pt  Pt8       1.0  0.50684  0.58990  0.50279  1.0000
  Pt  Pt9       1.0  0.41127  0.50298  0.51229  1.0000
  Pt  Pt10      1.0  0.58307  0.40668  0.47638  1.0000
  Pt  Pt11      1.0  0.52237  0.48947  0.62317  1.0000
  Pt  Pt12      1.0  0.48014  0.50829  0.37070  1.0000
  Pt  Pt13      1.0  0.41646  0.59444  0.51824  1.0000
  Pt  Pt14      1.0  0.59683  0.58580  0.48743  1.0000
  Pt  Pt15      1.0  0.40568  0.41196  0.50644  1.0000
  Pt  Pt16      1.0  0.61232  0.48540  0.60783  1.0000
  Pt  Pt17      1.0  0.57010  0.50423  0.35535  1.0000
  Pt  Pt18      1.0  0.51675  0.39849  0.61733  1.0000
  Pt  Pt19      1.0  0.47453  0.41731  0.36485  1.0000
  Pt  Pt20      1.0  0.52795  0.58049  0.62903  1.0000
  Pt  Pt21      1.0  0.48573  0.59931  0.37655  1.0000
  Pt  Pt22      1.0  0.43238  0.49357  0.63853  1.0000
  Pt  Pt23      1.0  0.39016  0.51239  0.38605  1.0000
  Pt  Pt24      1.0  0.47544  0.63248  0.57645  1.0000
  Pt  Pt25      1.0  0.45433  0.64190  0.45021  1.0000
  Pt  Pt26      1.0  0.37987  0.54556  0.58595  1.0000
  Pt  Pt27      1.0  0.35875  0.55498  0.45971  1.0000
  Pt  Pt28      1.0  0.56196  0.41609  0.35014  1.0000
  Pt  Pt29      1.0  0.60418  0.39726  0.60262  1.0000
  Pt  Pt30      1.0  0.67864  0.49360  0.46688  1.0000
  Pt  Pt31      1.0  0.48750  0.31976  0.48588  1.0000
  Pt  Pt32      1.0  0.43757  0.58503  0.64448  1.0000
  Pt  Pt33      1.0  0.39535  0.60386  0.39200  1.0000
  Pt  Pt34      1.0  0.61794  0.57639  0.61367  1.0000
  Pt  Pt35      1.0  0.42680  0.40255  0.63268  1.0000
  Pt  Pt36      1.0  0.57572  0.59521  0.36119  1.0000
  Pt  Pt37      1.0  0.38457  0.42138  0.38020  1.0000
  Pt  Pt38      1.0  0.51204  0.68136  0.50874  1.0000
  Pt  Pt39      1.0  0.32089  0.50752  0.52774  1.0000
  Pt  Pt40      1.0  0.63573  0.35451  0.52892  1.0000
  Pt  Pt41      1.0  0.61462  0.36393  0.40268  1.0000
  Pt  Pt42      1.0  0.67319  0.40242  0.46099  1.0000
  Pt  Pt43      1.0  0.57762  0.31550  0.47049  1.0000
  Pt  Pt44      1.0  0.58045  0.52851  0.68161  1.0000
  Pt  Pt45      1.0  0.48488  0.44160  0.69111  1.0000
  Pt  Pt46      1.0  0.51711  0.55675  0.30289  1.0000
  Pt  Pt47      1.0  0.42154  0.46984  0.31239  1.0000
  Pt  Pt48      1.0  0.65491  0.62485  0.54587  1.0000
  Pt  Pt49      1.0  0.63380  0.63426  0.41963  1.0000
  Pt  Pt50      1.0  0.36819  0.36409  0.57437  1.0000
  Pt  Pt51      1.0  0.34708  0.37350  0.44813  1.0000
  Pt  Pt52      1.0  0.68678  0.58174  0.47209  1.0000
  Pt  Pt53      1.0  0.40006  0.32098  0.50059  1.0000
  Pt  Pt54      1.0  0.60241  0.67682  0.49329  1.0000
  Pt  Pt55      1.0  0.31570  0.41606  0.52179  1.0000
  Pt  Pt56      1.0  0.41952  0.68832  0.52473  1.0000
  Pt  Pt57      1.0  0.32394  0.60140  0.53423  1.0000
  Pt  Pt58      1.0  0.38205  0.64041  0.59266  1.0000
  Pt  Pt59      1.0  0.36094  0.64983  0.46642  1.0000
  Pt  Pt60      1.0  0.69975  0.48418  0.59312  1.0000
  Pt  Pt61      1.0  0.65753  0.50301  0.34064  1.0000
  Pt  Pt62      1.0  0.50861  0.31034  0.61212  1.0000
  Pt  Pt63      1.0  0.46638  0.32917  0.35964  1.0000
  Pt  Pt64      1.0  0.53315  0.67195  0.63498  1.0000
  Pt  Pt65      1.0  0.34200  0.49811  0.65398  1.0000
  Pt  Pt66      1.0  0.49092  0.69078  0.38250  1.0000
  Pt  Pt67      1.0  0.29978  0.51694  0.40150  1.0000
  Pt  Pt68      1.0  0.69431  0.39300  0.58723  1.0000
  Pt  Pt69      1.0  0.65208  0.41183  0.33475  1.0000
  Pt  Pt70      1.0  0.59873  0.30609  0.59673  1.0000
  Pt  Pt71      1.0  0.55651  0.32491  0.34425  1.0000
  Pt  Pt72      1.0  0.73131  0.44143  0.51942  1.0000
  Pt  Pt73      1.0  0.54016  0.26759  0.53842  1.0000
  Pt  Pt74      1.0  0.71019  0.45084  0.39318  1.0000
  Pt  Pt75      1.0  0.51905  0.27701  0.41218  1.0000
  Pt  Pt76      1.0  0.49655  0.62307  0.70269  1.0000
  Pt  Pt77      1.0  0.40098  0.53615  0.71219  1.0000
  Pt  Pt78      1.0  0.43322  0.65131  0.32397  1.0000
  Pt  Pt79      1.0  0.33764  0.56439  0.33347  1.0000
  Pt  Pt80      1.0  0.70789  0.57232  0.59833  1.0000
  Pt  Pt81      1.0  0.66567  0.59115  0.34585  1.0000
  Pt  Pt82      1.0  0.42118  0.31157  0.62683  1.0000
  Pt  Pt83      1.0  0.37895  0.33039  0.37435  1.0000
  Pt  Pt84      1.0  0.62352  0.66741  0.61953  1.0000
  Pt  Pt85      1.0  0.58130  0.68623  0.36705  1.0000
  Pt  Pt86      1.0  0.33681  0.40665  0.64803  1.0000
  Pt  Pt87      1.0  0.29459  0.42548  0.39555  1.0000
  Pt  Pt88      1.0  0.57101  0.71940  0.56695  1.0000
  Pt  Pt89      1.0  0.54990  0.72882  0.44071  1.0000
  Pt  Pt90      1.0  0.28429  0.45865  0.59545  1.0000
  Pt  Pt91      1.0  0.26318  0.46806  0.46921  1.0000
  Pt  Pt92      1.0  0.44063  0.67891  0.65097  1.0000
  Pt  Pt93      1.0  0.39840  0.69773  0.39849  1.0000
  Pt  Pt94      1.0  0.34505  0.59199  0.66047  1.0000
  Pt  Pt95      1.0  0.30283  0.61081  0.40799  1.0000
  Pt  Pt96      1.0  0.47763  0.72733  0.58316  1.0000
  Pt  Pt97      1.0  0.28648  0.55349  0.60216  1.0000
  Pt  Pt98      1.0  0.45652  0.73675  0.45692  1.0000
  Pt  Pt99      1.0  0.26537  0.56291  0.47592  1.0000
  Pt  Pt100     1.0  0.45903  0.51771  0.24446  1.0000
  Pt  Pt101     1.0  0.54348  0.48005  0.74941  1.0000
  Pt  Pt102     1.0  0.67014  0.30854  0.45450  1.0000
  Pt  Pt103     1.0  0.69240  0.67272  0.47793  1.0000
  Pt  Pt104     1.0  0.31011  0.32504  0.51594  1.0000
  Pt  Pt105     1.0  0.32939  0.69258  0.54012  1.0000
  Pt  Pt106     1.0  0.65684  0.34510  0.65516  1.0000
  Pt  Pt107     1.0  0.59351  0.37334  0.27644  1.0000
  Pt  Pt108     1.0  0.76877  0.48934  0.45149  1.0000
  Pt  Pt109     1.0  0.48205  0.22858  0.47999  1.0000
  Pt  Pt110     1.0  0.63343  0.47599  0.73407  1.0000
  Pt  Pt111     1.0  0.54899  0.51364  0.22911  1.0000
  Pt  Pt112     1.0  0.53786  0.38907  0.74357  1.0000
  Pt  Pt113     1.0  0.45341  0.42673  0.23861  1.0000
  Pt  Pt114     1.0  0.54906  0.57107  0.75527  1.0000
  Pt  Pt115     1.0  0.46462  0.60873  0.25031  1.0000
  Pt  Pt116     1.0  0.45349  0.48415  0.76477  1.0000
  Pt  Pt117     1.0  0.36905  0.52181  0.25981  1.0000
  Pt  Pt118     1.0  0.67602  0.61543  0.67211  1.0000
  Pt  Pt119     1.0  0.61269  0.64367  0.29339  1.0000
  Pt  Pt120     1.0  0.38930  0.35468  0.70061  1.0000
  Pt  Pt121     1.0  0.32597  0.38292  0.32189  1.0000
  Pt  Pt122     1.0  0.72912  0.34658  0.51271  1.0000
  Pt  Pt123     1.0  0.70801  0.35600  0.38647  1.0000
  Pt  Pt124     1.0  0.63354  0.25966  0.52221  1.0000
  Pt  Pt125     1.0  0.61243  0.26908  0.39597  1.0000
  Pt  Pt126     1.0  0.40317  0.63100  0.71890  1.0000
  Pt  Pt127     1.0  0.33983  0.65924  0.34018  1.0000
  Pt  Pt128     1.0  0.51509  0.77524  0.51523  1.0000
  Pt  Pt129     1.0  0.22837  0.51448  0.54373  1.0000
  Pt  Pt130     1.0  0.62529  0.38785  0.72886  1.0000
  Pt  Pt131     1.0  0.54085  0.42550  0.22390  1.0000
  Pt  Pt132     1.0  0.37424  0.61327  0.26576  1.0000
  Pt  Pt133     1.0  0.45869  0.57562  0.77072  1.0000
  Pt  Pt134     1.0  0.63905  0.56697  0.73991  1.0000
  Pt  Pt135     1.0  0.36346  0.43079  0.25396  1.0000
  Pt  Pt136     1.0  0.55461  0.60463  0.23495  1.0000
  Pt  Pt137     1.0  0.44791  0.39314  0.75892  1.0000
  Pt  Pt138     1.0  0.77421  0.58051  0.45738  1.0000
  Pt  Pt139     1.0  0.39192  0.23284  0.49538  1.0000
  Pt  Pt140     1.0  0.64903  0.31796  0.32826  1.0000
  Pt  Pt141     1.0  0.69125  0.29913  0.58074  1.0000
  Pt  Pt142     1.0  0.76571  0.39546  0.44500  1.0000
  Pt  Pt143     1.0  0.57457  0.22162  0.46400  1.0000
  Pt  Pt144     1.0  0.28900  0.33446  0.38970  1.0000
  Pt  Pt145     1.0  0.67129  0.68213  0.35169  1.0000
  Pt  Pt146     1.0  0.33122  0.31563  0.64218  1.0000
  Pt  Pt147     1.0  0.71351  0.66330  0.60417  1.0000
  Pt  Pt148     1.0  0.60761  0.76828  0.49924  1.0000
  Pt  Pt149     1.0  0.22532  0.42061  0.53724  1.0000
  Pt  Pt150     1.0  0.35050  0.68317  0.66636  1.0000
  Pt  Pt151     1.0  0.30828  0.70199  0.41388  1.0000
  Pt  Pt152     1.0  0.42496  0.77950  0.53062  1.0000
  Pt  Pt153     1.0  0.23382  0.60566  0.54962  1.0000
  Pt  Pt154     1.0  0.75242  0.43202  0.64566  1.0000
  Pt  Pt155     1.0  0.56127  0.25818  0.66466  1.0000
  Pt  Pt156     1.0  0.68908  0.46026  0.26694  1.0000
  Pt  Pt157     1.0  0.49794  0.28642  0.28594  1.0000
  Pt  Pt158     1.0  0.78988  0.47992  0.57773  1.0000
  Pt  Pt159     1.0  0.74766  0.49875  0.32525  1.0000
  Pt  Pt160     1.0  0.50316  0.21917  0.60623  1.0000
  Pt  Pt161     1.0  0.46094  0.23799  0.35375  1.0000
  Pt  Pt162     1.0  0.59212  0.70999  0.69319  1.0000
  Pt  Pt163     1.0  0.52879  0.73823  0.31447  1.0000
  Pt  Pt164     1.0  0.30540  0.44923  0.72169  1.0000
  Pt  Pt165     1.0  0.24207  0.47747  0.34297  1.0000
  Pt  Pt166     1.0  0.49874  0.71792  0.70940  1.0000
  Pt  Pt167     1.0  0.30759  0.54408  0.72840  1.0000
  Pt  Pt168     1.0  0.43540  0.74616  0.33068  1.0000
  Pt  Pt169     1.0  0.24426  0.57232  0.34968  1.0000
  Pt  Pt170     1.0  0.53620  0.76582  0.64147  1.0000
  Pt  Pt171     1.0  0.49398  0.78465  0.38899  1.0000
  Pt  Pt172     1.0  0.24948  0.50507  0.66997  1.0000
  Pt  Pt173     1.0  0.20726  0.52389  0.41749  1.0000
  Pt  Pt174     1.0  0.44527  0.33859  0.23340  1.0000
  Pt  Pt175     1.0  0.72086  0.47477  0.71936  1.0000
  Pt  Pt176     1.0  0.52972  0.30093  0.73836  1.0000
  Pt  Pt177     1.0  0.63642  0.51242  0.21440  1.0000
  Pt  Pt178     1.0  0.79532  0.57110  0.58362  1.0000
  Pt  Pt179     1.0  0.75310  0.58993  0.33114  1.0000
  Pt  Pt180     1.0  0.41304  0.22343  0.62162  1.0000
  Pt  Pt181     1.0  0.37081  0.24225  0.36914  1.0000
  Pt  Pt182     1.0  0.55426  0.66254  0.76122  1.0000
  Pt  Pt183     1.0  0.46981  0.70019  0.25626  1.0000
  Pt  Pt184     1.0  0.36311  0.48870  0.78022  1.0000
  Pt  Pt185     1.0  0.27867  0.52635  0.27526  1.0000
  Pt  Pt186     1.0  0.78683  0.38605  0.57124  1.0000
  Pt  Pt187     1.0  0.74460  0.40487  0.31876  1.0000
  Pt  Pt188     1.0  0.55346  0.23104  0.33776  1.0000
  Pt  Pt189     1.0  0.59568  0.21221  0.59024  1.0000
  Pt  Pt190     1.0  0.58650  0.77769  0.37300  1.0000
  Pt  Pt191     1.0  0.62872  0.75887  0.62548  1.0000
  Pt  Pt192     1.0  0.24643  0.41119  0.66348  1.0000
  Pt  Pt193     1.0  0.20421  0.43002  0.41100  1.0000
  Pt  Pt194     1.0  0.44607  0.77008  0.65686  1.0000
  Pt  Pt195     1.0  0.21271  0.61507  0.42338  1.0000
  Pt  Pt196     1.0  0.40385  0.78891  0.40438  1.0000
  Pt  Pt197     1.0  0.25493  0.59625  0.67586  1.0000
  Pt  Pt198     1.0  0.71542  0.38359  0.71347  1.0000
  Pt  Pt199     1.0  0.63097  0.42124  0.20851  1.0000
  Pt  Pt200     1.0  0.61985  0.29667  0.72297  1.0000
  Pt  Pt201     1.0  0.53540  0.33433  0.21801  1.0000
  Pt  Pt202     1.0  0.82688  0.52835  0.50991  1.0000
  Pt  Pt203     1.0  0.44459  0.18067  0.54792  1.0000
  Pt  Pt204     1.0  0.80577  0.53776  0.38368  1.0000
  Pt  Pt205     1.0  0.42348  0.19009  0.42168  1.0000
  Pt  Pt206     1.0  0.60156  0.51910  0.80785  1.0000
  Pt  Pt207     1.0  0.50599  0.43218  0.81735  1.0000
  Pt  Pt208     1.0  0.49600  0.56617  0.17665  1.0000
  Pt  Pt209     1.0  0.40043  0.47925  0.18615  1.0000
  Pt  Pt210     1.0  0.72900  0.56291  0.72457  1.0000
  Pt  Pt211     1.0  0.64456  0.60056  0.21961  1.0000
  Pt  Pt212     1.0  0.35784  0.33981  0.24811  1.0000
  Pt  Pt213     1.0  0.44229  0.30215  0.75307  1.0000
  Pt  Pt214     1.0  0.64464  0.65799  0.74577  1.0000
  Pt  Pt215     1.0  0.56019  0.69565  0.24081  1.0000
  Pt  Pt216     1.0  0.35792  0.39724  0.77427  1.0000
  Pt  Pt217     1.0  0.27348  0.43489  0.26931  1.0000
  Pt  Pt218     1.0  0.75023  0.33717  0.63895  1.0000
  Pt  Pt219     1.0  0.65466  0.25025  0.64845  1.0000
  Pt  Pt220     1.0  0.68689  0.36541  0.26023  1.0000
  Pt  Pt221     1.0  0.59132  0.27849  0.26973  1.0000
  Pt  Pt222     1.0  0.76052  0.30400  0.43905  1.0000
  Pt  Pt223     1.0  0.66495  0.21708  0.44855  1.0000
  Pt  Pt224     1.0  0.33753  0.78072  0.54533  1.0000
  Pt  Pt225     1.0  0.24196  0.69380  0.55483  1.0000
  Pt  Pt226     1.0  0.82469  0.43350  0.50321  1.0000
  Pt  Pt227     1.0  0.80358  0.44291  0.37697  1.0000
  Pt  Pt228     1.0  0.53797  0.17274  0.53171  1.0000
  Pt  Pt229     1.0  0.51686  0.18216  0.40547  1.0000
  Pt  Pt230     1.0  0.75048  0.71177  0.53637  1.0000
  Pt  Pt231     1.0  0.72937  0.72118  0.41013  1.0000
  Pt  Pt232     1.0  0.27262  0.27717  0.58387  1.0000
  Pt  Pt233     1.0  0.25151  0.28658  0.45763  1.0000
  Pt  Pt234     1.0  0.78235  0.66866  0.46259  1.0000
  Pt  Pt235     1.0  0.30449  0.23406  0.51009  1.0000
  Pt  Pt236     1.0  0.69799  0.76374  0.48379  1.0000
  Pt  Pt237     1.0  0.22013  0.32914  0.53129  1.0000
  Pt  Pt238     1.0  0.37729  0.70715  0.27225  1.0000
  Pt  Pt239     1.0  0.46174  0.66949  0.77721  1.0000
  Pt  Pt240     1.0  0.36617  0.58257  0.78671  1.0000
  Pt  Pt241     1.0  0.28172  0.62023  0.28175  1.0000
  Pt  Pt242     1.0  0.57320  0.81425  0.57366  1.0000
  Pt  Pt243     1.0  0.19091  0.46658  0.61166  1.0000
  Pt  Pt244     1.0  0.55209  0.82366  0.44742  1.0000
  Pt  Pt245     1.0  0.16980  0.47599  0.48542  1.0000
  H   H1        1.0  0.53310  0.25601  0.76565  1.0000
