# generated using pymatgen
data_Ni76HPt245
_symmetry_space_group_name_H-M   'P 1'
_cell_length_a   30.00000000
_cell_length_b   30.00000000
_cell_length_c   30.00000000
_cell_angle_alpha   90.00000000
_cell_angle_beta   90.00000000
_cell_angle_gamma   90.00000000
_symmetry_Int_Tables_number   1
_chemical_formula_structural   Ni76HPt245
_chemical_formula_sum   'Ni76 H1 Pt245'
_cell_volume   27000.00000000
_cell_formula_units_Z   1
loop_
 _symmetry_equiv_pos_site_id
 _symmetry_equiv_pos_as_xyz
  1  'x, y, z'
loop_
 _atom_site_type_symbol
 _atom_site_label
 _atom_site_symmetry_multiplicity
 _atom_site_fract_x
 _atom_site_fract_y
 _atom_site_fract_z
 _atom_site_occupancy
  Ni  Ni0  1  0.55442000  0.44615000  0.54935000  1
  Ni  Ni1  1  0.53331000  0.45557000  0.42311000  1
  Ni  Ni2  1  0.46900000  0.54243000  0.57081000  1
  Ni  Ni3  1  0.44789000  0.55184000  0.44457000  1
  Ni  Ni4  1  0.64156000  0.44526000  0.53471000  1
  Ni  Ni5  1  0.54599000  0.35834000  0.54421000  1
  Ni  Ni6  1  0.62045000  0.45467000  0.40847000  1
  Ni  Ni7  1  0.52488000  0.36775000  0.41797000  1
  Ni  Ni8  1  0.64999000  0.53307000  0.53985000  1
  Ni  Ni9  1  0.45885000  0.35923000  0.55885000  1
  Ni  Ni10  1  0.62888000  0.54248000  0.41361000  1
  Ni  Ni11  1  0.43774000  0.36865000  0.43261000  1
  Ni  Ni12  1  0.56457000  0.62935000  0.56131000  1
  Ni  Ni13  1  0.37342000  0.45551000  0.58031000  1
  Ni  Ni14  1  0.54346000  0.63876000  0.43507000  1
  Ni  Ni15  1  0.35231000  0.46492000  0.45407000  1
  Ni  Ni16  1  0.57553000  0.43674000  0.67559000  1
  Ni  Ni17  1  0.51220000  0.46498000  0.29687000  1
  Ni  Ni18  1  0.49011000  0.53301000  0.69705000  1
  Ni  Ni19  1  0.42677000  0.56125000  0.31833000  1
  Ni  Ni20  1  0.66267000  0.43585000  0.66095000  1
  Ni  Ni21  1  0.56710000  0.34893000  0.67045000  1
  Ni  Ni22  1  0.59934000  0.46409000  0.28223000  1
  Ni  Ni23  1  0.50377000  0.37717000  0.29173000  1
  Ni  Ni24  1  0.73713000  0.53218000  0.52521000  1
  Ni  Ni25  1  0.45042000  0.27142000  0.55371000  1
  Ni  Ni26  1  0.71602000  0.54159000  0.39897000  1
  Ni  Ni27  1  0.42931000  0.28083000  0.42747000  1
  Ni  Ni28  1  0.67110000  0.52366000  0.66609000  1
  Ni  Ni29  1  0.47996000  0.34982000  0.68509000  1
  Ni  Ni30  1  0.60777000  0.55190000  0.28737000  1
  Ni  Ni31  1  0.41663000  0.37806000  0.30637000  1
  Ni  Ni32  1  0.58568000  0.61993000  0.68755000  1
  Ni  Ni33  1  0.39454000  0.44609000  0.70655000  1
  Ni  Ni34  1  0.52235000  0.64817000  0.30883000  1
  Ni  Ni35  1  0.33120000  0.47434000  0.32783000  1
  Ni  Ni36  1  0.74556000  0.61999000  0.53035000  1
  Ni  Ni37  1  0.36328000  0.27231000  0.56835000  1
  Ni  Ni38  1  0.72445000  0.62940000  0.40411000  1
  Ni  Ni39  1  0.34217000  0.28173000  0.44211000  1
  Ni  Ni40  1  0.66014000  0.71626000  0.55181000  1
  Ni  Ni41  1  0.27785000  0.36859000  0.58982000  1
  Ni  Ni42  1  0.63903000  0.72568000  0.42557000  1
  Ni  Ni43  1  0.25674000  0.37800000  0.46358000  1
  Ni  Ni44  1  0.38788000  0.73116000  0.59845000  1
  Ni  Ni45  1  0.29231000  0.64424000  0.60795000  1
  Ni  Ni46  1  0.27120000  0.65365000  0.48171000  1
  Ni  Ni47  1  0.36677000  0.74057000  0.47221000  1
  Ni  Ni48  1  0.75824000  0.52276000  0.65145000  1
  Ni  Ni49  1  0.47153000  0.26201000  0.67995000  1
  Ni  Ni50  1  0.69491000  0.55100000  0.27273000  1
  Ni  Ni51  1  0.40820000  0.29025000  0.30123000  1
  Ni  Ni52  1  0.59664000  0.42733000  0.80183000  1
  Ni  Ni53  1  0.49109000  0.47439000  0.17063000  1
  Ni  Ni54  1  0.51122000  0.52360000  0.82329000  1
  Ni  Ni55  1  0.40566000  0.57067000  0.19209000  1
  Ni  Ni56  1  0.72268000  0.25653000  0.50707000  1
  Ni  Ni57  1  0.70156000  0.26594000  0.38083000  1
  Ni  Ni58  1  0.30074000  0.73205000  0.61309000  1
  Ni  Ni59  1  0.27963000  0.74147000  0.48685000  1
  Ni  Ni60  1  0.38439000  0.26290000  0.69459000  1
  Ni  Ni61  1  0.76668000  0.61058000  0.65659000  1
  Ni  Ni62  1  0.70334000  0.63882000  0.27787000  1
  Ni  Ni63  1  0.32106000  0.29114000  0.31587000  1
  Ni  Ni64  1  0.29896000  0.35918000  0.71605000  1
  Ni  Ni65  1  0.68125000  0.70685000  0.67805000  1
  Ni  Ni66  1  0.61792000  0.73509000  0.29933000  1
  Ni  Ni67  1  0.23563000  0.38742000  0.33734000  1
  Ni  Ni68  1  0.40899000  0.72175000  0.72469000  1
  Ni  Ni69  1  0.31342000  0.63483000  0.73419000  1
  Ni  Ni70  1  0.34566000  0.74999000  0.34597000  1
  Ni  Ni71  1  0.25009000  0.66307000  0.35547000  1
  Ni  Ni72  1  0.48345000  0.81808000  0.58895000  1
  Ni  Ni73  1  0.19674000  0.55732000  0.61745000  1
  Ni  Ni74  1  0.46234000  0.82749000  0.46271000  1
  Ni  Ni75  1  0.17563000  0.56674000  0.49121000  1
  H  H76  1  0.52633000  0.29326000  0.18630000  1
  Pt  Pt77  1  0.50126000  0.49888000  0.49693000  1
  Pt  Pt78  1  0.55934000  0.53793000  0.55537000  1
  Pt  Pt79  1  0.53822000  0.54734000  0.42913000  1
  Pt  Pt80  1  0.46376000  0.45101000  0.56487000  1
  Pt  Pt81  1  0.44265000  0.46042000  0.43863000  1
  Pt  Pt82  1  0.59121000  0.49482000  0.48159000  1
  Pt  Pt83  1  0.49564000  0.40790000  0.49109000  1
  Pt  Pt84  1  0.50684000  0.58990000  0.50279000  1
  Pt  Pt85  1  0.41127000  0.50298000  0.51229000  1
  Pt  Pt86  1  0.58307000  0.40668000  0.47638000  1
  Pt  Pt87  1  0.52237000  0.48947000  0.62317000  1
  Pt  Pt88  1  0.48014000  0.50829000  0.37070000  1
  Pt  Pt89  1  0.41646000  0.59444000  0.51824000  1
  Pt  Pt90  1  0.59683000  0.58580000  0.48743000  1
  Pt  Pt91  1  0.40568000  0.41196000  0.50644000  1
  Pt  Pt92  1  0.61232000  0.48540000  0.60783000  1
  Pt  Pt93  1  0.57010000  0.50423000  0.35535000  1
  Pt  Pt94  1  0.51675000  0.39849000  0.61733000  1
  Pt  Pt95  1  0.47453000  0.41731000  0.36485000  1
  Pt  Pt96  1  0.52795000  0.58049000  0.62903000  1
  Pt  Pt97  1  0.48573000  0.59931000  0.37655000  1
  Pt  Pt98  1  0.43238000  0.49357000  0.63853000  1
  Pt  Pt99  1  0.39016000  0.51239000  0.38605000  1
  Pt  Pt100  1  0.47544000  0.63248000  0.57645000  1
  Pt  Pt101  1  0.45433000  0.64190000  0.45021000  1
  Pt  Pt102  1  0.37987000  0.54556000  0.58595000  1
  Pt  Pt103  1  0.35875000  0.55498000  0.45971000  1
  Pt  Pt104  1  0.56196000  0.41609000  0.35014000  1
  Pt  Pt105  1  0.60418000  0.39726000  0.60262000  1
  Pt  Pt106  1  0.67864000  0.49360000  0.46688000  1
  Pt  Pt107  1  0.48750000  0.31976000  0.48588000  1
  Pt  Pt108  1  0.43757000  0.58503000  0.64448000  1
  Pt  Pt109  1  0.39535000  0.60386000  0.39200000  1
  Pt  Pt110  1  0.61794000  0.57639000  0.61367000  1
  Pt  Pt111  1  0.42680000  0.40255000  0.63268000  1
  Pt  Pt112  1  0.57572000  0.59521000  0.36119000  1
  Pt  Pt113  1  0.38457000  0.42138000  0.38020000  1
  Pt  Pt114  1  0.51204000  0.68136000  0.50874000  1
  Pt  Pt115  1  0.32089000  0.50752000  0.52774000  1
  Pt  Pt116  1  0.63573000  0.35451000  0.52892000  1
  Pt  Pt117  1  0.61462000  0.36393000  0.40268000  1
  Pt  Pt118  1  0.67319000  0.40242000  0.46099000  1
  Pt  Pt119  1  0.57762000  0.31550000  0.47049000  1
  Pt  Pt120  1  0.58045000  0.52851000  0.68161000  1
  Pt  Pt121  1  0.48488000  0.44160000  0.69111000  1
  Pt  Pt122  1  0.51711000  0.55675000  0.30289000  1
  Pt  Pt123  1  0.42154000  0.46984000  0.31239000  1
  Pt  Pt124  1  0.65491000  0.62485000  0.54587000  1
  Pt  Pt125  1  0.63380000  0.63426000  0.41963000  1
  Pt  Pt126  1  0.36819000  0.36409000  0.57437000  1
  Pt  Pt127  1  0.34708000  0.37350000  0.44813000  1
  Pt  Pt128  1  0.68678000  0.58174000  0.47209000  1
  Pt  Pt129  1  0.40006000  0.32098000  0.50059000  1
  Pt  Pt130  1  0.60241000  0.67682000  0.49329000  1
  Pt  Pt131  1  0.31570000  0.41606000  0.52179000  1
  Pt  Pt132  1  0.41952000  0.68832000  0.52473000  1
  Pt  Pt133  1  0.32394000  0.60140000  0.53423000  1
  Pt  Pt134  1  0.38205000  0.64041000  0.59266000  1
  Pt  Pt135  1  0.36094000  0.64983000  0.46642000  1
  Pt  Pt136  1  0.69975000  0.48418000  0.59312000  1
  Pt  Pt137  1  0.65753000  0.50301000  0.34064000  1
  Pt  Pt138  1  0.50861000  0.31034000  0.61212000  1
  Pt  Pt139  1  0.46638000  0.32917000  0.35964000  1
  Pt  Pt140  1  0.53315000  0.67195000  0.63498000  1
  Pt  Pt141  1  0.34200000  0.49811000  0.65398000  1
  Pt  Pt142  1  0.49092000  0.69078000  0.38250000  1
  Pt  Pt143  1  0.29978000  0.51694000  0.40150000  1
  Pt  Pt144  1  0.69431000  0.39300000  0.58723000  1
  Pt  Pt145  1  0.65208000  0.41183000  0.33475000  1
  Pt  Pt146  1  0.59873000  0.30609000  0.59673000  1
  Pt  Pt147  1  0.55651000  0.32491000  0.34425000  1
  Pt  Pt148  1  0.73131000  0.44143000  0.51942000  1
  Pt  Pt149  1  0.54016000  0.26759000  0.53842000  1
  Pt  Pt150  1  0.71019000  0.45084000  0.39318000  1
  Pt  Pt151  1  0.51905000  0.27701000  0.41218000  1
  Pt  Pt152  1  0.49655000  0.62307000  0.70269000  1
  Pt  Pt153  1  0.40098000  0.53615000  0.71219000  1
  Pt  Pt154  1  0.43322000  0.65131000  0.32397000  1
  Pt  Pt155  1  0.33764000  0.56439000  0.33347000  1
  Pt  Pt156  1  0.70789000  0.57232000  0.59833000  1
  Pt  Pt157  1  0.66567000  0.59115000  0.34585000  1
  Pt  Pt158  1  0.42118000  0.31157000  0.62683000  1
  Pt  Pt159  1  0.37895000  0.33039000  0.37435000  1
  Pt  Pt160  1  0.62352000  0.66741000  0.61953000  1
  Pt  Pt161  1  0.58130000  0.68623000  0.36705000  1
  Pt  Pt162  1  0.33681000  0.40665000  0.64803000  1
  Pt  Pt163  1  0.29459000  0.42548000  0.39555000  1
  Pt  Pt164  1  0.57101000  0.71940000  0.56695000  1
  Pt  Pt165  1  0.54990000  0.72882000  0.44071000  1
  Pt  Pt166  1  0.28429000  0.45865000  0.59545000  1
  Pt  Pt167  1  0.26318000  0.46806000  0.46921000  1
  Pt  Pt168  1  0.44063000  0.67891000  0.65097000  1
  Pt  Pt169  1  0.39840000  0.69773000  0.39849000  1
  Pt  Pt170  1  0.34505000  0.59199000  0.66047000  1
  Pt  Pt171  1  0.30283000  0.61081000  0.40799000  1
  Pt  Pt172  1  0.47763000  0.72733000  0.58316000  1
  Pt  Pt173  1  0.28648000  0.55349000  0.60216000  1
  Pt  Pt174  1  0.45652000  0.73675000  0.45692000  1
  Pt  Pt175  1  0.26537000  0.56291000  0.47592000  1
  Pt  Pt176  1  0.45903000  0.51771000  0.24446000  1
  Pt  Pt177  1  0.54348000  0.48005000  0.74941000  1
  Pt  Pt178  1  0.67014000  0.30854000  0.45450000  1
  Pt  Pt179  1  0.69240000  0.67272000  0.47793000  1
  Pt  Pt180  1  0.31011000  0.32504000  0.51594000  1
  Pt  Pt181  1  0.32939000  0.69258000  0.54012000  1
  Pt  Pt182  1  0.65684000  0.34510000  0.65516000  1
  Pt  Pt183  1  0.59351000  0.37334000  0.27644000  1
  Pt  Pt184  1  0.76877000  0.48934000  0.45149000  1
  Pt  Pt185  1  0.48205000  0.22858000  0.47999000  1
  Pt  Pt186  1  0.63343000  0.47599000  0.73407000  1
  Pt  Pt187  1  0.54899000  0.51364000  0.22911000  1
  Pt  Pt188  1  0.53786000  0.38907000  0.74357000  1
  Pt  Pt189  1  0.45341000  0.42673000  0.23861000  1
  Pt  Pt190  1  0.54906000  0.57107000  0.75527000  1
  Pt  Pt191  1  0.46462000  0.60873000  0.25031000  1
  Pt  Pt192  1  0.45349000  0.48415000  0.76477000  1
  Pt  Pt193  1  0.36905000  0.52181000  0.25981000  1
  Pt  Pt194  1  0.67602000  0.61543000  0.67211000  1
  Pt  Pt195  1  0.61269000  0.64367000  0.29339000  1
  Pt  Pt196  1  0.38930000  0.35468000  0.70061000  1
  Pt  Pt197  1  0.32597000  0.38292000  0.32189000  1
  Pt  Pt198  1  0.72912000  0.34658000  0.51271000  1
  Pt  Pt199  1  0.70801000  0.35600000  0.38647000  1
  Pt  Pt200  1  0.63354000  0.25966000  0.52221000  1
  Pt  Pt201  1  0.61243000  0.26908000  0.39597000  1
  Pt  Pt202  1  0.40317000  0.63100000  0.71890000  1
  Pt  Pt203  1  0.33983000  0.65924000  0.34018000  1
  Pt  Pt204  1  0.51509000  0.77524000  0.51523000  1
  Pt  Pt205  1  0.22837000  0.51448000  0.54373000  1
  Pt  Pt206  1  0.62529000  0.38785000  0.72886000  1
  Pt  Pt207  1  0.54085000  0.42550000  0.22390000  1
  Pt  Pt208  1  0.37424000  0.61327000  0.26576000  1
  Pt  Pt209  1  0.45869000  0.57562000  0.77072000  1
  Pt  Pt210  1  0.63905000  0.56697000  0.73991000  1
  Pt  Pt211  1  0.36346000  0.43079000  0.25396000  1
  Pt  Pt212  1  0.55461000  0.60463000  0.23495000  1
  Pt  Pt213  1  0.44791000  0.39314000  0.75892000  1
  Pt  Pt214  1  0.77421000  0.58051000  0.45738000  1
  Pt  Pt215  1  0.39192000  0.23284000  0.49538000  1
  Pt  Pt216  1  0.64903000  0.31796000  0.32826000  1
  Pt  Pt217  1  0.69125000  0.29913000  0.58074000  1
  Pt  Pt218  1  0.76571000  0.39546000  0.44500000  1
  Pt  Pt219  1  0.57457000  0.22162000  0.46400000  1
  Pt  Pt220  1  0.28900000  0.33446000  0.38970000  1
  Pt  Pt221  1  0.67129000  0.68213000  0.35169000  1
  Pt  Pt222  1  0.33122000  0.31563000  0.64218000  1
  Pt  Pt223  1  0.71351000  0.66330000  0.60417000  1
  Pt  Pt224  1  0.60761000  0.76828000  0.49924000  1
  Pt  Pt225  1  0.22532000  0.42061000  0.53724000  1
  Pt  Pt226  1  0.35050000  0.68317000  0.66636000  1
  Pt  Pt227  1  0.30828000  0.70199000  0.41388000  1
  Pt  Pt228  1  0.42496000  0.77950000  0.53062000  1
  Pt  Pt229  1  0.23382000  0.60566000  0.54962000  1
  Pt  Pt230  1  0.75242000  0.43202000  0.64566000  1
  Pt  Pt231  1  0.56127000  0.25818000  0.66466000  1
  Pt  Pt232  1  0.68908000  0.46026000  0.26694000  1
  Pt  Pt233  1  0.49794000  0.28642000  0.28594000  1
  Pt  Pt234  1  0.78988000  0.47992000  0.57773000  1
  Pt  Pt235  1  0.74766000  0.49875000  0.32525000  1
  Pt  Pt236  1  0.50316000  0.21917000  0.60623000  1
  Pt  Pt237  1  0.46094000  0.23799000  0.35375000  1
  Pt  Pt238  1  0.59212000  0.70999000  0.69319000  1
  Pt  Pt239  1  0.52879000  0.73823000  0.31447000  1
  Pt  Pt240  1  0.30540000  0.44923000  0.72169000  1
  Pt  Pt241  1  0.24207000  0.47747000  0.34297000  1
  Pt  Pt242  1  0.49874000  0.71792000  0.70940000  1
  Pt  Pt243  1  0.30759000  0.54408000  0.72840000  1
  Pt  Pt244  1  0.43540000  0.74616000  0.33068000  1
  Pt  Pt245  1  0.24426000  0.57232000  0.34968000  1
  Pt  Pt246  1  0.53620000  0.76582000  0.64147000  1
  Pt  Pt247  1  0.49398000  0.78465000  0.38899000  1
  Pt  Pt248  1  0.24948000  0.50507000  0.66997000  1
  Pt  Pt249  1  0.20726000  0.52389000  0.41749000  1
  Pt  Pt250  1  0.44527000  0.33859000  0.23340000  1
  Pt  Pt251  1  0.72086000  0.47477000  0.71936000  1
  Pt  Pt252  1  0.52972000  0.30093000  0.73836000  1
  Pt  Pt253  1  0.63642000  0.51242000  0.21440000  1
  Pt  Pt254  1  0.79532000  0.57110000  0.58362000  1
  Pt  Pt255  1  0.75310000  0.58993000  0.33114000  1
  Pt  Pt256  1  0.41304000  0.22343000  0.62162000  1
  Pt  Pt257  1  0.37081000  0.24225000  0.36914000  1
  Pt  Pt258  1  0.55426000  0.66254000  0.76122000  1
  Pt  Pt259  1  0.46981000  0.70019000  0.25626000  1
  Pt  Pt260  1  0.36311000  0.48870000  0.78022000  1
  Pt  Pt261  1  0.27867000  0.52635000  0.27526000  1
  Pt  Pt262  1  0.78683000  0.38605000  0.57124000  1
  Pt  Pt263  1  0.74460000  0.40487000  0.31876000  1
  Pt  Pt264  1  0.55346000  0.23104000  0.33776000  1
  Pt  Pt265  1  0.59568000  0.21221000  0.59024000  1
  Pt  Pt266  1  0.58650000  0.77769000  0.37300000  1
  Pt  Pt267  1  0.62872000  0.75887000  0.62548000  1
  Pt  Pt268  1  0.24643000  0.41119000  0.66348000  1
  Pt  Pt269  1  0.20421000  0.43002000  0.41100000  1
  Pt  Pt270  1  0.44607000  0.77008000  0.65686000  1
  Pt  Pt271  1  0.21271000  0.61507000  0.42338000  1
  Pt  Pt272  1  0.40385000  0.78891000  0.40438000  1
  Pt  Pt273  1  0.25493000  0.59625000  0.67586000  1
  Pt  Pt274  1  0.71542000  0.38359000  0.71347000  1
  Pt  Pt275  1  0.63097000  0.42124000  0.20851000  1
  Pt  Pt276  1  0.61985000  0.29667000  0.72297000  1
  Pt  Pt277  1  0.53540000  0.33433000  0.21801000  1
  Pt  Pt278  1  0.82688000  0.52835000  0.50991000  1
  Pt  Pt279  1  0.44459000  0.18067000  0.54792000  1
  Pt  Pt280  1  0.80577000  0.53776000  0.38368000  1
  Pt  Pt281  1  0.42348000  0.19009000  0.42168000  1
  Pt  Pt282  1  0.60156000  0.51910000  0.80785000  1
  Pt  Pt283  1  0.50599000  0.43218000  0.81735000  1
  Pt  Pt284  1  0.49600000  0.56617000  0.17665000  1
  Pt  Pt285  1  0.40043000  0.47925000  0.18615000  1
  Pt  Pt286  1  0.72900000  0.56291000  0.72457000  1
  Pt  Pt287  1  0.64456000  0.60056000  0.21961000  1
  Pt  Pt288  1  0.35784000  0.33981000  0.24811000  1
  Pt  Pt289  1  0.44229000  0.30215000  0.75307000  1
  Pt  Pt290  1  0.64464000  0.65799000  0.74577000  1
  Pt  Pt291  1  0.56019000  0.69565000  0.24081000  1
  Pt  Pt292  1  0.35792000  0.39724000  0.77427000  1
  Pt  Pt293  1  0.27348000  0.43489000  0.26931000  1
  Pt  Pt294  1  0.75023000  0.33717000  0.63895000  1
  Pt  Pt295  1  0.65466000  0.25025000  0.64845000  1
  Pt  Pt296  1  0.68689000  0.36541000  0.26023000  1
  Pt  Pt297  1  0.59132000  0.27849000  0.26973000  1
  Pt  Pt298  1  0.76052000  0.30400000  0.43905000  1
  Pt  Pt299  1  0.66495000  0.21708000  0.44855000  1
  Pt  Pt300  1  0.33753000  0.78072000  0.54533000  1
  Pt  Pt301  1  0.24196000  0.69380000  0.55483000  1
  Pt  Pt302  1  0.82469000  0.43350000  0.50321000  1
  Pt  Pt303  1  0.80358000  0.44291000  0.37697000  1
  Pt  Pt304  1  0.53797000  0.17274000  0.53171000  1
  Pt  Pt305  1  0.51686000  0.18216000  0.40547000  1
  Pt  Pt306  1  0.75048000  0.71177000  0.53637000  1
  Pt  Pt307  1  0.72937000  0.72118000  0.41013000  1
  Pt  Pt308  1  0.27262000  0.27717000  0.58387000  1
  Pt  Pt309  1  0.25151000  0.28658000  0.45763000  1
  Pt  Pt310  1  0.78235000  0.66866000  0.46259000  1
  Pt  Pt311  1  0.30449000  0.23406000  0.51009000  1
  Pt  Pt312  1  0.69799000  0.76374000  0.48379000  1
  Pt  Pt313  1  0.22013000  0.32914000  0.53129000  1
  Pt  Pt314  1  0.37729000  0.70715000  0.27225000  1
  Pt  Pt315  1  0.46174000  0.66949000  0.77721000  1
  Pt  Pt316  1  0.36617000  0.58257000  0.78671000  1
  Pt  Pt317  1  0.28172000  0.62023000  0.28175000  1
  Pt  Pt318  1  0.57320000  0.81425000  0.57366000  1
  Pt  Pt319  1  0.19091000  0.46658000  0.61166000  1
  Pt  Pt320  1  0.55209000  0.82366000  0.44742000  1
  Pt  Pt321  1  0.16980000  0.47599000  0.48542000  1
