# generated using pymatgen
data_H(Pt65Au53)2
_symmetry_space_group_name_H-M   'P 1'
_cell_length_a   30.00000000
_cell_length_b   30.00000000
_cell_length_c   30.00000000
_cell_angle_alpha   90.00000000
_cell_angle_beta   90.00000000
_cell_angle_gamma   90.00000000
_symmetry_Int_Tables_number   1
_chemical_formula_structural   H(Pt65Au53)2
_chemical_formula_sum   'H1 Pt130 Au106'
_cell_volume   27000.00000000
_cell_formula_units_Z   1
loop_
 _symmetry_equiv_pos_site_id
 _symmetry_equiv_pos_as_xyz
  1  'x, y, z'
loop_
 _atom_site_type_symbol
 _atom_site_label
 _atom_site_symmetry_multiplicity
 _atom_site_fract_x
 _atom_site_fract_y
 _atom_site_fract_z
 _atom_site_occupancy
  H  H0  1  0.33720156  0.81070649  0.56415198  1
  Pt  Pt1  1  0.43381289  0.37225156  0.23844641  1
  Pt  Pt2  1  0.56628447  0.37236371  0.23838389  1
  Pt  Pt3  1  0.37211187  0.43361665  0.23841735  1
  Pt  Pt4  1  0.43475387  0.50000522  0.23839756  1
  Pt  Pt5  1  0.50006738  0.43485999  0.23844860  1
  Pt  Pt6  1  0.56534630  0.50007732  0.23845095  1
  Pt  Pt7  1  0.62790085  0.43389701  0.23836420  1
  Pt  Pt8  1  0.37215848  0.56629883  0.23843560  1
  Pt  Pt9  1  0.43388215  0.62773868  0.23827769  1
  Pt  Pt10  1  0.50009582  0.56522508  0.23841305  1
  Pt  Pt11  1  0.56635715  0.62787723  0.23849084  1
  Pt  Pt12  1  0.62794064  0.56627229  0.23846682  1
  Pt  Pt13  1  0.43332356  0.24325503  0.35955594  1
  Pt  Pt14  1  0.43351604  0.24313125  0.64022751  1
  Pt  Pt15  1  0.56667636  0.24339765  0.35955934  1
  Pt  Pt16  1  0.56660551  0.24324608  0.64022501  1
  Pt  Pt17  1  0.30187499  0.36507346  0.35832301  1
  Pt  Pt18  1  0.30194833  0.36477953  0.64181246  1
  Pt  Pt19  1  0.36549898  0.30174301  0.35837886  1
  Pt  Pt20  1  0.36559801  0.30152602  0.64160588  1
  Pt  Pt21  1  0.36474222  0.36463528  0.29614780  1
  Pt  Pt22  1  0.43035975  0.30453664  0.29674798  1
  Pt  Pt23  1  0.43410160  0.36658625  0.36419371  1
  Pt  Pt24  1  0.43415887  0.36638071  0.63567002  1
  Pt  Pt25  1  0.49997194  0.30053950  0.35945074  1
  Pt  Pt26  1  0.50003827  0.30052704  0.64035597  1
  Pt  Pt27  1  0.50005534  0.36135729  0.29454267  1
  Pt  Pt28  1  0.56979590  0.30464202  0.29674476  1
  Pt  Pt29  1  0.56584930  0.36652256  0.36438767  1
  Pt  Pt30  1  0.56597543  0.36642849  0.63566735  1
  Pt  Pt31  1  0.63466258  0.30187420  0.35831495  1
  Pt  Pt32  1  0.63450054  0.30167312  0.64152052  1
  Pt  Pt33  1  0.63518036  0.36493559  0.29626856  1
  Pt  Pt34  1  0.69813401  0.36535159  0.35838100  1
  Pt  Pt35  1  0.69807983  0.36512091  0.64145466  1
  Pt  Pt36  1  0.24327574  0.43287651  0.35970346  1
  Pt  Pt37  1  0.24323661  0.43246053  0.64070116  1
  Pt  Pt38  1  0.30452113  0.43004442  0.29686390  1
  Pt  Pt39  1  0.30014880  0.49988176  0.35902033  1
  Pt  Pt40  1  0.29988596  0.49975215  0.64168821  1
  Pt  Pt41  1  0.36641006  0.43408309  0.36424813  1
  Pt  Pt42  1  0.36633883  0.43396909  0.63588462  1
  Pt  Pt43  1  0.36111997  0.49994047  0.29437449  1
  Pt  Pt44  1  0.43392355  0.43401017  0.30324025  1
  Pt  Pt45  1  0.43176159  0.49996961  0.36432818  1
  Pt  Pt46  1  0.43171593  0.49988162  0.63575831  1
  Pt  Pt47  1  0.49998092  0.43183508  0.36434231  1
  Pt  Pt48  1  0.49993036  0.43173594  0.63559302  1
  Pt  Pt49  1  0.50008734  0.50004654  0.30254912  1
  Pt  Pt50  1  0.56615100  0.43398890  0.30338305  1
  Pt  Pt51  1  0.56828703  0.50008533  0.36443543  1
  Pt  Pt52  1  0.56811225  0.50006477  0.63557949  1
  Pt  Pt53  1  0.63361994  0.43430686  0.36446332  1
  Pt  Pt54  1  0.63347778  0.43424280  0.63576467  1
  Pt  Pt55  1  0.63874050  0.50006625  0.29463789  1
  Pt  Pt56  1  0.69549339  0.43033597  0.29688867  1
  Pt  Pt57  1  0.69974603  0.50005411  0.35933228  1
  Pt  Pt58  1  0.69983320  0.50007293  0.64093268  1
  Pt  Pt59  1  0.75670158  0.43314123  0.35983738  1
  Pt  Pt60  1  0.75680312  0.43294261  0.64007365  1
  Pt  Pt61  1  0.24332108  0.56696034  0.35954970  1
  Pt  Pt62  1  0.24336214  0.56713030  0.64132732  1
  Pt  Pt63  1  0.30453967  0.56983560  0.29667711  1
  Pt  Pt64  1  0.30195287  0.63474613  0.35839033  1
  Pt  Pt65  1  0.30252908  0.63458293  0.64235122  1
  Pt  Pt66  1  0.36629212  0.56551419  0.36423481  1
  Pt  Pt67  1  0.36637490  0.56554043  0.63601062  1
  Pt  Pt68  1  0.36483910  0.63518757  0.29619090  1
  Pt  Pt69  1  0.43394069  0.56598489  0.30322248  1
  Pt  Pt70  1  0.43420550  0.63330514  0.36408844  1
  Pt  Pt71  1  0.43367918  0.63316676  0.63560050  1
  Pt  Pt72  1  0.50002611  0.56820496  0.36433219  1
  Pt  Pt73  1  0.49966670  0.56827512  0.63555088  1
  Pt  Pt74  1  0.50004036  0.63885924  0.29439237  1
  Pt  Pt75  1  0.56610384  0.56612008  0.30334831  1
  Pt  Pt76  1  0.56575307  0.63358848  0.36442762  1
  Pt  Pt77  1  0.56525307  0.63381218  0.63529124  1
  Pt  Pt78  1  0.63361664  0.56584784  0.36444289  1
  Pt  Pt79  1  0.63331012  0.56608934  0.63567287  1
  Pt  Pt80  1  0.63526335  0.63521126  0.29636964  1
  Pt  Pt81  1  0.69556290  0.56986748  0.29695271  1
  Pt  Pt82  1  0.69818564  0.63475658  0.35847034  1
  Pt  Pt83  1  0.69780060  0.63517905  0.64158901  1
  Pt  Pt84  1  0.75673096  0.56694457  0.35996230  1
  Pt  Pt85  1  0.75649008  0.56728142  0.64035222  1
  Pt  Pt86  1  0.36546013  0.69814094  0.35823553  1
  Pt  Pt87  1  0.36634004  0.69739440  0.64141297  1
  Pt  Pt88  1  0.43032483  0.69545007  0.29669314  1
  Pt  Pt89  1  0.43331359  0.75664397  0.35963201  1
  Pt  Pt90  1  0.43341288  0.75699860  0.64026217  1
  Pt  Pt91  1  0.49994657  0.69938716  0.35960604  1
  Pt  Pt92  1  0.49918304  0.69900098  0.63921275  1
  Pt  Pt93  1  0.56984012  0.69546377  0.29687531  1
  Pt  Pt94  1  0.56655028  0.75660468  0.35981362  1
  Pt  Pt95  1  0.56573802  0.75678206  0.63982732  1
  Pt  Pt96  1  0.63461000  0.69821068  0.35843531  1
  Pt  Pt97  1  0.63400165  0.69855615  0.64140433  1
  Pt  Pt98  1  0.36491714  0.36437339  0.70386108  1
  Pt  Pt99  1  0.43050158  0.30431649  0.70319046  1
  Pt  Pt100  1  0.43394501  0.37193651  0.76163692  1
  Pt  Pt101  1  0.50010961  0.36119911  0.70546290  1
  Pt  Pt102  1  0.56972404  0.30438814  0.70316115  1
  Pt  Pt103  1  0.56647577  0.37203108  0.76151285  1
  Pt  Pt104  1  0.63535793  0.36450840  0.70373594  1
  Pt  Pt105  1  0.30463422  0.42976091  0.70336524  1
  Pt  Pt106  1  0.37225763  0.43328834  0.76176799  1
  Pt  Pt107  1  0.36146116  0.49966580  0.70565492  1
  Pt  Pt108  1  0.43395646  0.43376903  0.69680374  1
  Pt  Pt109  1  0.43484622  0.49965624  0.76183390  1
  Pt  Pt110  1  0.50018416  0.43455162  0.76156684  1
  Pt  Pt111  1  0.49990918  0.49994075  0.69756390  1
  Pt  Pt112  1  0.56599417  0.43389518  0.69662594  1
  Pt  Pt113  1  0.56538394  0.49995812  0.76134827  1
  Pt  Pt114  1  0.62802597  0.43360343  0.76118607  1
  Pt  Pt115  1  0.63876480  0.50007699  0.70535722  1
  Pt  Pt116  1  0.69560305  0.43008361  0.70287515  1
  Pt  Pt117  1  0.30477128  0.56972268  0.70387197  1
  Pt  Pt118  1  0.37265002  0.56567101  0.76185401  1
  Pt  Pt119  1  0.36491267  0.63497394  0.70531867  1
  Pt  Pt120  1  0.43398932  0.56595349  0.69691496  1
  Pt  Pt121  1  0.43399070  0.62769543  0.76210957  1
  Pt  Pt122  1  0.50001856  0.56509552  0.76175113  1
  Pt  Pt123  1  0.49969358  0.63896129  0.70544788  1
  Pt  Pt124  1  0.56571813  0.56629072  0.69652022  1
  Pt  Pt125  1  0.56589119  0.62809017  0.76150199  1
  Pt  Pt126  1  0.62747906  0.56656189  0.76114131  1
  Pt  Pt127  1  0.63475500  0.63557471  0.70356247  1
  Pt  Pt128  1  0.69520279  0.57020453  0.70302893  1
  Pt  Pt129  1  0.43038329  0.69537450  0.70338134  1
  Pt  Pt130  1  0.56907145  0.69565770  0.70275493  1
  Au  Au131  1  0.36737268  0.23364157  0.42392671  1
  Au  Au132  1  0.36742008  0.23365517  0.57594431  1
  Au  Au133  1  0.42959476  0.22916635  0.49949475  1
  Au  Au134  1  0.49995547  0.22992564  0.42583102  1
  Au  Au135  1  0.50005145  0.22982211  0.57375218  1
  Au  Au136  1  0.57047377  0.22939852  0.49963800  1
  Au  Au137  1  0.63291668  0.23430528  0.42365685  1
  Au  Au138  1  0.63262311  0.23371421  0.57592951  1
  Au  Au139  1  0.23440480  0.36663961  0.42393590  1
  Au  Au140  1  0.23422625  0.36648377  0.57635144  1
  Au  Au141  1  0.29715346  0.29650373  0.42100650  1
  Au  Au142  1  0.29717221  0.29645738  0.57900017  1
  Au  Au143  1  0.28568107  0.35071010  0.50013532  1
  Au  Au144  1  0.35157067  0.28550469  0.49997268  1
  Au  Au145  1  0.36291340  0.36328898  0.43312712  1
  Au  Au146  1  0.36314813  0.36310531  0.56699112  1
  Au  Au147  1  0.43228695  0.29909240  0.43263243  1
  Au  Au148  1  0.43245005  0.29873618  0.56705935  1
  Au  Au149  1  0.43047912  0.36308718  0.50001839  1
  Au  Au150  1  0.49985184  0.29265157  0.49989048  1
  Au  Au151  1  0.49995327  0.36456511  0.43314651  1
  Au  Au152  1  0.49998147  0.36450123  0.56685968  1
  Au  Au153  1  0.56746519  0.29907214  0.43270742  1
  Au  Au154  1  0.56754199  0.29881382  0.56705047  1
  Au  Au155  1  0.56944570  0.36311693  0.50000555  1
  Au  Au156  1  0.64884127  0.28533836  0.50001295  1
  Au  Au157  1  0.63702490  0.36323602  0.43317251  1
  Au  Au158  1  0.63694405  0.36297217  0.56675697  1
  Au  Au159  1  0.70319897  0.29672330  0.42095444  1
  Au  Au160  1  0.70294823  0.29646013  0.57895536  1
  Au  Au161  1  0.71425592  0.35089758  0.49990221  1
  Au  Au162  1  0.76569606  0.36682385  0.42378805  1
  Au  Au163  1  0.76564812  0.36667744  0.57592992  1
  Au  Au164  1  0.22968447  0.42851297  0.50011428  1
  Au  Au165  1  0.22975846  0.49982037  0.42554469  1
  Au  Au166  1  0.22961054  0.49968369  0.57533498  1
  Au  Au167  1  0.29875241  0.43252135  0.43285877  1
  Au  Au168  1  0.29869937  0.43223292  0.56754455  1
  Au  Au169  1  0.29142170  0.49980989  0.50039063  1
  Au  Au170  1  0.36285169  0.43056396  0.50011915  1
  Au  Au171  1  0.36429886  0.49972627  0.43307627  1
  Au  Au172  1  0.36421586  0.49961690  0.56715990  1
  Au  Au173  1  0.43159371  0.43169725  0.43163756  1
  Au  Au174  1  0.43160202  0.43168279  0.56838026  1
  Au  Au175  1  0.43247357  0.49986912  0.49999469  1
  Au  Au176  1  0.50003421  0.43246802  0.50000915  1
  Au  Au177  1  0.50000984  0.50000277  0.43093650  1
  Au  Au178  1  0.49989496  0.49996522  0.56905900  1
  Au  Au179  1  0.56834333  0.43170189  0.43165927  1
  Au  Au180  1  0.56835288  0.43167076  0.56838514  1
  Au  Au181  1  0.56749442  0.50005496  0.50004791  1
  Au  Au182  1  0.63694020  0.43060263  0.50005680  1
  Au  Au183  1  0.63556122  0.50006880  0.43322546  1
  Au  Au184  1  0.63557017  0.50005988  0.56693821  1
  Au  Au185  1  0.70117305  0.43263575  0.43298129  1
  Au  Au186  1  0.70095137  0.43244684  0.56736282  1
  Au  Au187  1  0.70769399  0.50008969  0.50023273  1
  Au  Au188  1  0.77032114  0.42885680  0.50015320  1
  Au  Au189  1  0.77000411  0.50003077  0.42603458  1
  Au  Au190  1  0.76995485  0.50014162  0.57438532  1
  Au  Au191  1  0.23036721  0.57239364  0.50053329  1
  Au  Au192  1  0.23464267  0.63323634  0.42373263  1
  Au  Au193  1  0.23502425  0.63312373  0.57716514  1
  Au  Au194  1  0.29842528  0.56684083  0.43295353  1
  Au  Au195  1  0.29851361  0.56666023  0.56792829  1
  Au  Au196  1  0.28340216  0.65243480  0.50031080  1
  Au  Au197  1  0.36245530  0.56855135  0.50011006  1
  Au  Au198  1  0.36263843  0.63580799  0.43293280  1
  Au  Au199  1  0.36242290  0.63570692  0.56670570  1
  Au  Au200  1  0.43155677  0.56820603  0.43164044  1
  Au  Au201  1  0.43150161  0.56802614  0.56833325  1
  Au  Au202  1  0.43004333  0.63655163  0.50005531  1
  Au  Au203  1  0.49990953  0.56753062  0.50002584  1
  Au  Au204  1  0.49988545  0.63534685  0.43321484  1
  Au  Au205  1  0.49929449  0.63558497  0.56660555  1
  Au  Au206  1  0.56832165  0.56834535  0.43166497  1
  Au  Au207  1  0.56817199  0.56831690  0.56839206  1
  Au  Au208  1  0.56936143  0.63690836  0.50004470  1
  Au  Au209  1  0.63687817  0.56952808  0.50004785  1
  Au  Au210  1  0.63665505  0.63707679  0.43308204  1
  Au  Au211  1  0.63658328  0.63713440  0.56697212  1
  Au  Au212  1  0.70105781  0.56760784  0.43292805  1
  Au  Au213  1  0.70085211  0.56771303  0.56742397  1
  Au  Au214  1  0.71380767  0.64892807  0.50014369  1
  Au  Au215  1  0.77023863  0.57114330  0.50019339  1
  Au  Au216  1  0.76575470  0.63319290  0.42423702  1
  Au  Au217  1  0.76556240  0.63336812  0.57614986  1
  Au  Au218  1  0.29772901  0.70360157  0.42122465  1
  Au  Au219  1  0.29852549  0.70333059  0.57949212  1
  Au  Au220  1  0.35520630  0.71141237  0.50013399  1
  Au  Au221  1  0.36739084  0.76621365  0.42407214  1
  Au  Au222  1  0.36809279  0.76953553  0.57631342  1
  Au  Au223  1  0.43192252  0.70030091  0.43223786  1
  Au  Au224  1  0.43018075  0.70172500  0.56695042  1
  Au  Au225  1  0.43112083  0.77142730  0.49785667  1
  Au  Au226  1  0.49919990  0.70679469  0.50010500  1
  Au  Au227  1  0.49980935  0.77025586  0.42593761  1
  Au  Au228  1  0.49912267  0.77033301  0.57313155  1
  Au  Au229  1  0.56720880  0.70120925  0.43305588  1
  Au  Au230  1  0.56707155  0.70139646  0.56671288  1
  Au  Au231  1  0.56976273  0.77088408  0.49975696  1
  Au  Au232  1  0.64824880  0.71456417  0.50002606  1
  Au  Au233  1  0.63282575  0.76600643  0.42382650  1
  Au  Au234  1  0.63245087  0.76636871  0.57590660  1
  Au  Au235  1  0.70305099  0.70331695  0.42106997  1
  Au  Au236  1  0.70280499  0.70352851  0.57900948  1
