# generated using pymatgen
data_H(Pt65Au53)2
_symmetry_space_group_name_H-M   'P 1'
_cell_length_a   30.00000000
_cell_length_b   30.00000000
_cell_length_c   30.00000000
_cell_angle_alpha   90.00000000
_cell_angle_beta   90.00000000
_cell_angle_gamma   90.00000000
_symmetry_Int_Tables_number   1
_chemical_formula_structural   H(Pt65Au53)2
_chemical_formula_sum   'H1 Pt130 Au106'
_cell_volume   27000.00000000
_cell_formula_units_Z   1
loop_
 _symmetry_equiv_pos_site_id
 _symmetry_equiv_pos_as_xyz
  1  'x, y, z'
loop_
 _atom_site_type_symbol
 _atom_site_label
 _atom_site_symmetry_multiplicity
 _atom_site_fract_x
 _atom_site_fract_y
 _atom_site_fract_z
 _atom_site_occupancy
  H  H0  1  0.57610087  0.49988782  0.18215484  1
  Pt  Pt1  1  0.43360150  0.37205631  0.23872519  1
  Pt  Pt2  1  0.56566065  0.37208734  0.23822201  1
  Pt  Pt3  1  0.37204593  0.43369914  0.23845171  1
  Pt  Pt4  1  0.43431168  0.49995775  0.23789677  1
  Pt  Pt5  1  0.49971385  0.43473588  0.23788433  1
  Pt  Pt6  1  0.56473682  0.49999075  0.23311675  1
  Pt  Pt7  1  0.62762388  0.43365995  0.23788391  1
  Pt  Pt8  1  0.37203467  0.56623016  0.23841140  1
  Pt  Pt9  1  0.43357931  0.62788145  0.23873424  1
  Pt  Pt10  1  0.49971488  0.56523153  0.23788929  1
  Pt  Pt11  1  0.56564155  0.62787762  0.23821829  1
  Pt  Pt12  1  0.62763857  0.56630491  0.23787308  1
  Pt  Pt13  1  0.43295746  0.24311256  0.35994510  1
  Pt  Pt14  1  0.43323773  0.24335313  0.64039061  1
  Pt  Pt15  1  0.56673954  0.24346674  0.35969687  1
  Pt  Pt16  1  0.56678187  0.24342940  0.64010651  1
  Pt  Pt17  1  0.30181547  0.36535208  0.35854777  1
  Pt  Pt18  1  0.30182815  0.36523807  0.64184680  1
  Pt  Pt19  1  0.36526723  0.30192782  0.35865526  1
  Pt  Pt20  1  0.36534563  0.30183448  0.64171802  1
  Pt  Pt21  1  0.36480987  0.36480412  0.29639275  1
  Pt  Pt22  1  0.43024755  0.30447639  0.29715079  1
  Pt  Pt23  1  0.43435873  0.36670701  0.36422638  1
  Pt  Pt24  1  0.43424269  0.36653340  0.63594049  1
  Pt  Pt25  1  0.49981115  0.30023349  0.35930892  1
  Pt  Pt26  1  0.49993388  0.30048865  0.64070182  1
  Pt  Pt27  1  0.49991997  0.36177802  0.29501817  1
  Pt  Pt28  1  0.56946744  0.30461542  0.29673457  1
  Pt  Pt29  1  0.56560808  0.36637841  0.36440799  1
  Pt  Pt30  1  0.56575772  0.36651145  0.63571668  1
  Pt  Pt31  1  0.63461993  0.30201687  0.35820938  1
  Pt  Pt32  1  0.63473198  0.30186697  0.64152583  1
  Pt  Pt33  1  0.63457013  0.36497160  0.29596490  1
  Pt  Pt34  1  0.69775743  0.36556095  0.35798228  1
  Pt  Pt35  1  0.69820133  0.36526387  0.64161578  1
  Pt  Pt36  1  0.24324026  0.43292189  0.35971997  1
  Pt  Pt37  1  0.24326367  0.43309612  0.64063980  1
  Pt  Pt38  1  0.30451596  0.43028960  0.29684674  1
  Pt  Pt39  1  0.30012235  0.49996345  0.35903960  1
  Pt  Pt40  1  0.30022913  0.49998378  0.64101824  1
  Pt  Pt41  1  0.36647393  0.43423737  0.36421731  1
  Pt  Pt42  1  0.36645393  0.43429181  0.63591543  1
  Pt  Pt43  1  0.36155010  0.49997485  0.29470292  1
  Pt  Pt44  1  0.43420382  0.43438584  0.30320084  1
  Pt  Pt45  1  0.43160568  0.49999425  0.36470391  1
  Pt  Pt46  1  0.43174409  0.49999469  0.63575947  1
  Pt  Pt47  1  0.50044324  0.43230123  0.36393942  1
  Pt  Pt48  1  0.50002520  0.43181117  0.63584149  1
  Pt  Pt49  1  0.50095677  0.49998491  0.30124395  1
  Pt  Pt50  1  0.56616723  0.43463254  0.30263716  1
  Pt  Pt51  1  0.56852593  0.49997223  0.36423671  1
  Pt  Pt52  1  0.56829700  0.50002423  0.63591020  1
  Pt  Pt53  1  0.63333958  0.43433636  0.36390855  1
  Pt  Pt54  1  0.63357989  0.43428659  0.63579367  1
  Pt  Pt55  1  0.63912382  0.49997599  0.29364508  1
  Pt  Pt56  1  0.69498136  0.43030575  0.29630084  1
  Pt  Pt57  1  0.69908006  0.49996450  0.35997156  1
  Pt  Pt58  1  0.69970081  0.50001310  0.64054287  1
  Pt  Pt59  1  0.75638156  0.43327405  0.35898381  1
  Pt  Pt60  1  0.75678994  0.43305965  0.64038522  1
  Pt  Pt61  1  0.24320142  0.56696153  0.35966401  1
  Pt  Pt62  1  0.24323158  0.56680258  0.64062968  1
  Pt  Pt63  1  0.30447979  0.56962243  0.29683151  1
  Pt  Pt64  1  0.30175734  0.63455643  0.35853888  1
  Pt  Pt65  1  0.30177437  0.63464489  0.64187927  1
  Pt  Pt66  1  0.36647657  0.56575670  0.36421624  1
  Pt  Pt67  1  0.36641423  0.56567537  0.63585024  1
  Pt  Pt68  1  0.36476665  0.63511772  0.29635924  1
  Pt  Pt69  1  0.43419474  0.56556289  0.30320746  1
  Pt  Pt70  1  0.43437023  0.63326093  0.36423082  1
  Pt  Pt71  1  0.43422091  0.63340125  0.63587608  1
  Pt  Pt72  1  0.50043971  0.56766598  0.36393344  1
  Pt  Pt73  1  0.50003008  0.56819827  0.63579440  1
  Pt  Pt74  1  0.49992967  0.63820373  0.29502797  1
  Pt  Pt75  1  0.56615862  0.56530639  0.30264228  1
  Pt  Pt76  1  0.56562487  0.63360032  0.36441130  1
  Pt  Pt77  1  0.56573905  0.63355373  0.63568536  1
  Pt  Pt78  1  0.63333151  0.56560068  0.36391548  1
  Pt  Pt79  1  0.63354985  0.56572678  0.63577002  1
  Pt  Pt80  1  0.63454803  0.63498565  0.29593160  1
  Pt  Pt81  1  0.69498462  0.56964654  0.29629644  1
  Pt  Pt82  1  0.69772581  0.63440595  0.35797675  1
  Pt  Pt83  1  0.69807638  0.63488087  0.64160375  1
  Pt  Pt84  1  0.75635248  0.56666492  0.35899594  1
  Pt  Pt85  1  0.75671881  0.56703019  0.64033287  1
  Pt  Pt86  1  0.36519399  0.69797273  0.35864109  1
  Pt  Pt87  1  0.36527857  0.69807111  0.64176578  1
  Pt  Pt88  1  0.43019085  0.69547002  0.29713592  1
  Pt  Pt89  1  0.43286732  0.75680865  0.35993589  1
  Pt  Pt90  1  0.43322309  0.75664132  0.64035400  1
  Pt  Pt91  1  0.49982714  0.69978778  0.35923581  1
  Pt  Pt92  1  0.49988428  0.69945756  0.64055960  1
  Pt  Pt93  1  0.56946821  0.69537895  0.29671789  1
  Pt  Pt94  1  0.56678605  0.75653051  0.35965448  1
  Pt  Pt95  1  0.56657020  0.75663849  0.64016986  1
  Pt  Pt96  1  0.63463013  0.69795726  0.35817025  1
  Pt  Pt97  1  0.63456665  0.69826913  0.64154192  1
  Pt  Pt98  1  0.36483785  0.36477376  0.70394837  1
  Pt  Pt99  1  0.43027253  0.30453675  0.70332060  1
  Pt  Pt100  1  0.43378671  0.37218290  0.76178201  1
  Pt  Pt101  1  0.50004759  0.36116811  0.70584166  1
  Pt  Pt102  1  0.56982629  0.30454968  0.70307559  1
  Pt  Pt103  1  0.56644875  0.37209693  0.76163383  1
  Pt  Pt104  1  0.63532213  0.36471104  0.70376315  1
  Pt  Pt105  1  0.30459605  0.43018275  0.70341765  1
  Pt  Pt106  1  0.37227095  0.43377003  0.76181322  1
  Pt  Pt107  1  0.36131428  0.49999575  0.70568482  1
  Pt  Pt108  1  0.43395899  0.43396477  0.69694608  1
  Pt  Pt109  1  0.43493363  0.50001364  0.76176136  1
  Pt  Pt110  1  0.50015032  0.43479586  0.76171216  1
  Pt  Pt111  1  0.50005999  0.50001120  0.69752007  1
  Pt  Pt112  1  0.56615423  0.43386585  0.69680568  1
  Pt  Pt113  1  0.56542297  0.50003281  0.76153920  1
  Pt  Pt114  1  0.62791379  0.43367601  0.76157874  1
  Pt  Pt115  1  0.63937999  0.50003480  0.70582150  1
  Pt  Pt116  1  0.69556960  0.43013498  0.70320872  1
  Pt  Pt117  1  0.30455076  0.56975660  0.70346174  1
  Pt  Pt118  1  0.37228177  0.56622104  0.76183345  1
  Pt  Pt119  1  0.36482222  0.63515532  0.70396895  1
  Pt  Pt120  1  0.43396099  0.56602759  0.69691775  1
  Pt  Pt121  1  0.43376814  0.62784363  0.76178334  1
  Pt  Pt122  1  0.50013069  0.56523427  0.76171419  1
  Pt  Pt123  1  0.50000792  0.63882459  0.70578280  1
  Pt  Pt124  1  0.56612069  0.56619541  0.69679967  1
  Pt  Pt125  1  0.56636341  0.62796546  0.76167942  1
  Pt  Pt126  1  0.62791773  0.56642351  0.76154851  1
  Pt  Pt127  1  0.63524618  0.63539470  0.70377133  1
  Pt  Pt128  1  0.69553371  0.56998520  0.70317350  1
  Pt  Pt129  1  0.43025940  0.69546254  0.70329787  1
  Pt  Pt130  1  0.56969530  0.69551054  0.70311517  1
  Au  Au131  1  0.36683174  0.23431019  0.42434613  1
  Au  Au132  1  0.36718274  0.23400088  0.57591995  1
  Au  Au133  1  0.42976795  0.22924228  0.50022664  1
  Au  Au134  1  0.49992524  0.22990227  0.42610368  1
  Au  Au135  1  0.49995851  0.22968594  0.57390172  1
  Au  Au136  1  0.57035746  0.22986026  0.49978374  1
  Au  Au137  1  0.63304707  0.23440849  0.42375114  1
  Au  Au138  1  0.63306105  0.23429994  0.57570899  1
  Au  Au139  1  0.23399010  0.36705657  0.42427403  1
  Au  Au140  1  0.23425833  0.36672497  0.57639853  1
  Au  Au141  1  0.29670504  0.29691134  0.42132160  1
  Au  Au142  1  0.29702747  0.29665940  0.57894986  1
  Au  Au143  1  0.28600655  0.35161391  0.50016801  1
  Au  Au144  1  0.35241722  0.28687450  0.50012849  1
  Au  Au145  1  0.36325867  0.36335289  0.43298784  1
  Au  Au146  1  0.36315441  0.36339491  0.56722246  1
  Au  Au147  1  0.43258526  0.29892017  0.43285138  1
  Au  Au148  1  0.43244011  0.29904558  0.56744863  1
  Au  Au149  1  0.43050971  0.36314676  0.50006181  1
  Au  Au150  1  0.49972064  0.29301387  0.50014363  1
  Au  Au151  1  0.49983746  0.36474712  0.43300726  1
  Au  Au152  1  0.49986412  0.36471481  0.56697441  1
  Au  Au153  1  0.56723586  0.29895618  0.43289598  1
  Au  Au154  1  0.56725980  0.29896533  0.56712731  1
  Au  Au155  1  0.56936748  0.36312373  0.50003754  1
  Au  Au156  1  0.64867262  0.28606969  0.49982687  1
  Au  Au157  1  0.63662970  0.36320587  0.43294624  1
  Au  Au158  1  0.63673091  0.36303370  0.56697769  1
  Au  Au159  1  0.70325009  0.29713913  0.42087853  1
  Au  Au160  1  0.70333366  0.29683378  0.57883239  1
  Au  Au161  1  0.71423595  0.35179432  0.49996900  1
  Au  Au162  1  0.76551593  0.36733179  0.42355465  1
  Au  Au163  1  0.76609899  0.36692053  0.57606827  1
  Au  Au164  1  0.22931270  0.42935385  0.50052347  1
  Au  Au165  1  0.22980643  0.50000606  0.42575079  1
  Au  Au166  1  0.22988307  0.49999154  0.57433190  1
  Au  Au167  1  0.29870100  0.43256010  0.43287335  1
  Au  Au168  1  0.29879904  0.43252161  0.56751402  1
  Au  Au169  1  0.29225065  0.49999204  0.50005720  1
  Au  Au170  1  0.36296874  0.43061146  0.50004401  1
  Au  Au171  1  0.36421244  0.49998604  0.43321686  1
  Au  Au172  1  0.36440406  0.49996984  0.56694085  1
  Au  Au173  1  0.43166591  0.43181353  0.43158542  1
  Au  Au174  1  0.43165957  0.43176052  0.56845375  1
  Au  Au175  1  0.43249731  0.49999075  0.50000519  1
  Au  Au176  1  0.50001893  0.43254602  0.49998195  1
  Au  Au177  1  0.50007552  0.49997002  0.43095095  1
  Au  Au178  1  0.49999674  0.50000247  0.56911544  1
  Au  Au179  1  0.56836612  0.43163768  0.43161188  1
  Au  Au180  1  0.56832502  0.43167270  0.56844097  1
  Au  Au181  1  0.56747168  0.50000628  0.50005750  1
  Au  Au182  1  0.63697378  0.43050066  0.50007977  1
  Au  Au183  1  0.63528969  0.49997334  0.43334395  1
  Au  Au184  1  0.63547127  0.49999172  0.56691363  1
  Au  Au185  1  0.70097833  0.43260505  0.43270929  1
  Au  Au186  1  0.70117334  0.43227982  0.56734826  1
  Au  Au187  1  0.70725801  0.49996580  0.50017049  1
  Au  Au188  1  0.77079732  0.42990091  0.49998784  1
  Au  Au189  1  0.76974544  0.49994025  0.42566626  1
  Au  Au190  1  0.77005332  0.50000842  0.57426923  1
  Au  Au191  1  0.22917565  0.57061252  0.50049438  1
  Au  Au192  1  0.23382472  0.63270283  0.42421949  1
  Au  Au193  1  0.23416051  0.63308731  0.57635965  1
  Au  Au194  1  0.29869216  0.56738407  0.43284254  1
  Au  Au195  1  0.29872133  0.56738387  0.56740917  1
  Au  Au196  1  0.28568175  0.64844955  0.50010955  1
  Au  Au197  1  0.36295499  0.56940131  0.50005145  1
  Au  Au198  1  0.36318267  0.63659266  0.43304357  1
  Au  Au199  1  0.36299740  0.63654729  0.56714210  1
  Au  Au200  1  0.43168328  0.56818057  0.43157794  1
  Au  Au201  1  0.43165447  0.56820173  0.56844601  1
  Au  Au202  1  0.43054291  0.63685310  0.50005323  1
  Au  Au203  1  0.50000838  0.56744792  0.49999135  1
  Au  Au204  1  0.49988277  0.63526558  0.43302075  1
  Au  Au205  1  0.49995332  0.63541445  0.56688471  1
  Au  Au206  1  0.56834929  0.56833583  0.43159251  1
  Au  Au207  1  0.56833758  0.56835030  0.56843680  1
  Au  Au208  1  0.56939958  0.63690208  0.49999031  1
  Au  Au209  1  0.63693249  0.56947420  0.50007191  1
  Au  Au210  1  0.63673136  0.63668234  0.43296617  1
  Au  Au211  1  0.63669402  0.63702070  0.56696287  1
  Au  Au212  1  0.70100241  0.56725779  0.43275670  1
  Au  Au213  1  0.70104658  0.56764186  0.56733971  1
  Au  Au214  1  0.71415868  0.64848176  0.49989732  1
  Au  Au215  1  0.77051598  0.57047478  0.49984340  1
  Au  Au216  1  0.76544561  0.63272634  0.42345884  1
  Au  Au217  1  0.76564731  0.63330739  0.57602303  1
  Au  Au218  1  0.29666788  0.70297921  0.42129104  1
  Au  Au219  1  0.29674687  0.70313904  0.57899153  1
  Au  Au220  1  0.35225371  0.71308930  0.50025648  1
  Au  Au221  1  0.36682919  0.76551430  0.42446365  1
  Au  Au222  1  0.36675851  0.76563047  0.57620334  1
  Au  Au223  1  0.43261622  0.70096056  0.43280628  1
  Au  Au224  1  0.43238401  0.70088094  0.56746033  1
  Au  Au225  1  0.42950343  0.77055421  0.50034983  1
  Au  Au226  1  0.49984088  0.70717713  0.50005862  1
  Au  Au227  1  0.49998477  0.77002518  0.42599436  1
  Au  Au228  1  0.49992258  0.77029788  0.57383406  1
  Au  Au229  1  0.56737285  0.70108994  0.43286550  1
  Au  Au230  1  0.56730699  0.70115634  0.56703676  1
  Au  Au231  1  0.57039164  0.77055328  0.49963463  1
  Au  Au232  1  0.64847184  0.71415943  0.49987295  1
  Au  Au233  1  0.63307080  0.76567339  0.42369836  1
  Au  Au234  1  0.63255574  0.76621375  0.57582340  1
  Au  Au235  1  0.70316075  0.70296793  0.42087515  1
  Au  Au236  1  0.70287107  0.70344627  0.57883379  1
