# generated using pymatgen
data_H(Pt65Au53)2
_symmetry_space_group_name_H-M   'P 1'
_cell_length_a   30.00000000
_cell_length_b   30.00000000
_cell_length_c   30.00000000
_cell_angle_alpha   90.00000000
_cell_angle_beta   90.00000000
_cell_angle_gamma   90.00000000
_symmetry_Int_Tables_number   1
_chemical_formula_structural   H(Pt65Au53)2
_chemical_formula_sum   'H1 Pt130 Au106'
_cell_volume   27000.00000000
_cell_formula_units_Z   1
loop_
 _symmetry_equiv_pos_site_id
 _symmetry_equiv_pos_as_xyz
  1  'x, y, z'
loop_
 _atom_site_type_symbol
 _atom_site_label
 _atom_site_symmetry_multiplicity
 _atom_site_fract_x
 _atom_site_fract_y
 _atom_site_fract_z
 _atom_site_occupancy
  H  H0  1  0.34046218  0.57983503  0.80668326  1
  Pt  Pt1  1  0.43397443  0.37193359  0.23804928  1
  Pt  Pt2  1  0.56635630  0.37204128  0.23798396  1
  Pt  Pt3  1  0.37246333  0.43354458  0.23791337  1
  Pt  Pt4  1  0.43493631  0.49989881  0.23788504  1
  Pt  Pt5  1  0.50024208  0.43460213  0.23792203  1
  Pt  Pt6  1  0.56552087  0.49998302  0.23794138  1
  Pt  Pt7  1  0.62792203  0.43357337  0.23795285  1
  Pt  Pt8  1  0.37247434  0.56621612  0.23769708  1
  Pt  Pt9  1  0.43397623  0.62787939  0.23780428  1
  Pt  Pt10  1  0.50019085  0.56526271  0.23788732  1
  Pt  Pt11  1  0.56638064  0.62788961  0.23790227  1
  Pt  Pt12  1  0.62797493  0.56638762  0.23802926  1
  Pt  Pt13  1  0.43321342  0.24342300  0.35976926  1
  Pt  Pt14  1  0.43274545  0.24432290  0.64144345  1
  Pt  Pt15  1  0.56682238  0.24344852  0.35982350  1
  Pt  Pt16  1  0.56634835  0.24398401  0.64106752  1
  Pt  Pt17  1  0.30202147  0.36531777  0.35811044  1
  Pt  Pt18  1  0.30143395  0.36624235  0.64154208  1
  Pt  Pt19  1  0.36543915  0.30197673  0.35826996  1
  Pt  Pt20  1  0.36494665  0.30290782  0.64210128  1
  Pt  Pt21  1  0.36502647  0.36465532  0.29572723  1
  Pt  Pt22  1  0.43040623  0.30447833  0.29667126  1
  Pt  Pt23  1  0.43432061  0.36647645  0.36414878  1
  Pt  Pt24  1  0.43401332  0.36741055  0.63623300  1
  Pt  Pt25  1  0.50004342  0.30053817  0.35928870  1
  Pt  Pt26  1  0.49965071  0.30127305  0.64142671  1
  Pt  Pt27  1  0.50018335  0.36117028  0.29415910  1
  Pt  Pt28  1  0.56978701  0.30453891  0.29670077  1
  Pt  Pt29  1  0.56584491  0.36647942  0.36421260  1
  Pt  Pt30  1  0.56556828  0.36717502  0.63617764  1
  Pt  Pt31  1  0.63467226  0.30195248  0.35835606  1
  Pt  Pt32  1  0.63434968  0.30244000  0.64201759  1
  Pt  Pt33  1  0.63518362  0.36475734  0.29592397  1
  Pt  Pt34  1  0.69804944  0.36540550  0.35826035  1
  Pt  Pt35  1  0.69800144  0.36555325  0.64170137  1
  Pt  Pt36  1  0.24344502  0.43303897  0.35916484  1
  Pt  Pt37  1  0.24264072  0.43393136  0.63995841  1
  Pt  Pt38  1  0.30472640  0.43004079  0.29629979  1
  Pt  Pt39  1  0.30047881  0.49996328  0.35862961  1
  Pt  Pt40  1  0.30011987  0.50021480  0.64030590  1
  Pt  Pt41  1  0.36671345  0.43414235  0.36372518  1
  Pt  Pt42  1  0.36623650  0.43470517  0.63529043  1
  Pt  Pt43  1  0.36114325  0.49995185  0.29364594  1
  Pt  Pt44  1  0.43418036  0.43383269  0.30282257  1
  Pt  Pt45  1  0.43190620  0.49991022  0.36371566  1
  Pt  Pt46  1  0.43168148  0.50081374  0.63552849  1
  Pt  Pt47  1  0.50014542  0.43173880  0.36399483  1
  Pt  Pt48  1  0.49975464  0.43253756  0.63613989  1
  Pt  Pt49  1  0.50022612  0.49994608  0.30197581  1
  Pt  Pt50  1  0.56623637  0.43391193  0.30290151  1
  Pt  Pt51  1  0.56830147  0.49998094  0.36396839  1
  Pt  Pt52  1  0.56822644  0.50006603  0.63569067  1
  Pt  Pt53  1  0.63357281  0.43430320  0.36407566  1
  Pt  Pt54  1  0.63357611  0.43448116  0.63579142  1
  Pt  Pt55  1  0.63904343  0.49997315  0.29384264  1
  Pt  Pt56  1  0.69539454  0.43011344  0.29655368  1
  Pt  Pt57  1  0.69961424  0.50001589  0.35896395  1
  Pt  Pt58  1  0.69990811  0.50000186  0.64058940  1
  Pt  Pt59  1  0.75663309  0.43314188  0.35945072  1
  Pt  Pt60  1  0.75679725  0.43303985  0.64030214  1
  Pt  Pt61  1  0.24347233  0.56684483  0.35909676  1
  Pt  Pt62  1  0.24265593  0.56642535  0.63897120  1
  Pt  Pt63  1  0.30467306  0.56980323  0.29603296  1
  Pt  Pt64  1  0.30203063  0.63464203  0.35771515  1
  Pt  Pt65  1  0.30117655  0.63400031  0.64135969  1
  Pt  Pt66  1  0.36652231  0.56576649  0.36369647  1
  Pt  Pt67  1  0.36538436  0.56571184  0.63540953  1
  Pt  Pt68  1  0.36502351  0.63518507  0.29550736  1
  Pt  Pt69  1  0.43408667  0.56604810  0.30273810  1
  Pt  Pt70  1  0.43436843  0.63353997  0.36371972  1
  Pt  Pt71  1  0.43429396  0.63214962  0.63630035  1
  Pt  Pt72  1  0.50014980  0.56816278  0.36382613  1
  Pt  Pt73  1  0.50073020  0.56780636  0.63503207  1
  Pt  Pt74  1  0.50014602  0.63888009  0.29392412  1
  Pt  Pt75  1  0.56620189  0.56607264  0.30286828  1
  Pt  Pt76  1  0.56595649  0.63349878  0.36397855  1
  Pt  Pt77  1  0.56592850  0.63321062  0.63580666  1
  Pt  Pt78  1  0.63351701  0.56579018  0.36405415  1
  Pt  Pt79  1  0.63379652  0.56565278  0.63552615  1
  Pt  Pt80  1  0.63519690  0.63531391  0.29587320  1
  Pt  Pt81  1  0.69535097  0.56983837  0.29666617  1
  Pt  Pt82  1  0.69804071  0.63483166  0.35824510  1
  Pt  Pt83  1  0.69828136  0.63472392  0.64156948  1
  Pt  Pt84  1  0.75651266  0.56703884  0.35966645  1
  Pt  Pt85  1  0.75699314  0.56695533  0.64001623  1
  Pt  Pt86  1  0.36550913  0.69806830  0.35778237  1
  Pt  Pt87  1  0.36488598  0.69724896  0.64188362  1
  Pt  Pt88  1  0.43039843  0.69556837  0.29624950  1
  Pt  Pt89  1  0.43332864  0.75668084  0.35938621  1
  Pt  Pt90  1  0.43296568  0.75566710  0.64109156  1
  Pt  Pt91  1  0.50005834  0.69951611  0.35900116  1
  Pt  Pt92  1  0.49963936  0.69870435  0.64204192  1
  Pt  Pt93  1  0.56980351  0.69552211  0.29650431  1
  Pt  Pt94  1  0.56669995  0.75671000  0.35946420  1
  Pt  Pt95  1  0.56611082  0.75601783  0.64065394  1
  Pt  Pt96  1  0.63461309  0.69819854  0.35818815  1
  Pt  Pt97  1  0.63446893  0.69785381  0.64188730  1
  Pt  Pt98  1  0.36421078  0.36632126  0.70394200  1
  Pt  Pt99  1  0.42963367  0.30596616  0.70392636  1
  Pt  Pt100  1  0.43314754  0.37381466  0.76205915  1
  Pt  Pt101  1  0.49957989  0.36228518  0.70618125  1
  Pt  Pt102  1  0.56946228  0.30554099  0.70372828  1
  Pt  Pt103  1  0.56606837  0.37330815  0.76196278  1
  Pt  Pt104  1  0.63517577  0.36538864  0.70411913  1
  Pt  Pt105  1  0.30406359  0.43174036  0.70297783  1
  Pt  Pt106  1  0.37116141  0.43506986  0.76184733  1
  Pt  Pt107  1  0.36144750  0.50130681  0.70517375  1
  Pt  Pt108  1  0.43338624  0.43517579  0.69706542  1
  Pt  Pt109  1  0.43394569  0.50089325  0.76228140  1
  Pt  Pt110  1  0.49982789  0.43569395  0.76206653  1
  Pt  Pt111  1  0.49965292  0.50078214  0.69785722  1
  Pt  Pt112  1  0.56608845  0.43460254  0.69705321  1
  Pt  Pt113  1  0.56561340  0.50023278  0.76204292  1
  Pt  Pt114  1  0.62830557  0.43416707  0.76205232  1
  Pt  Pt115  1  0.63884846  0.50016846  0.70549854  1
  Pt  Pt116  1  0.69568577  0.43055751  0.70338096  1
  Pt  Pt117  1  0.30269504  0.56963233  0.70353155  1
  Pt  Pt118  1  0.36913990  0.56657607  0.76507717  1
  Pt  Pt119  1  0.36366853  0.63429557  0.70387568  1
  Pt  Pt120  1  0.43205546  0.56540390  0.69766577  1
  Pt  Pt121  1  0.43280336  0.62591114  0.76159912  1
  Pt  Pt122  1  0.50016485  0.56480062  0.76238942  1
  Pt  Pt123  1  0.49957490  0.63668498  0.70586873  1
  Pt  Pt124  1  0.56647557  0.56586112  0.69700568  1
  Pt  Pt125  1  0.56637727  0.62714417  0.76199189  1
  Pt  Pt126  1  0.62864076  0.56614939  0.76204324  1
  Pt  Pt127  1  0.63524954  0.63483048  0.70385413  1
  Pt  Pt128  1  0.69584093  0.56966819  0.70302293  1
  Pt  Pt129  1  0.42961079  0.69388944  0.70364852  1
  Pt  Pt130  1  0.56922457  0.69455824  0.70347047  1
  Au  Au131  1  0.36708336  0.23487202  0.42433656  1
  Au  Au132  1  0.36719966  0.23476517  0.57674205  1
  Au  Au133  1  0.42935976  0.23045157  0.50086062  1
  Au  Au134  1  0.50008298  0.22995969  0.42616094  1
  Au  Au135  1  0.49933584  0.23074090  0.57488126  1
  Au  Au136  1  0.57041872  0.23028099  0.50042744  1
  Au  Au137  1  0.63316630  0.23464360  0.42429192  1
  Au  Au138  1  0.63261035  0.23472820  0.57659865  1
  Au  Au139  1  0.23392210  0.36748797  0.42395993  1
  Au  Au140  1  0.23414528  0.36741380  0.57566447  1
  Au  Au141  1  0.29666815  0.29716473  0.42097760  1
  Au  Au142  1  0.29670443  0.29739315  0.57909871  1
  Au  Au143  1  0.28648575  0.35226672  0.49969892  1
  Au  Au144  1  0.35160869  0.28636139  0.50046430  1
  Au  Au145  1  0.36364331  0.36293481  0.43286396  1
  Au  Au146  1  0.36270658  0.36390389  0.56694242  1
  Au  Au147  1  0.43308268  0.29888878  0.43294257  1
  Au  Au148  1  0.43212872  0.29996601  0.56815651  1
  Au  Au149  1  0.43058191  0.36313776  0.50006742  1
  Au  Au150  1  0.49992389  0.29318517  0.50070435  1
  Au  Au151  1  0.50007901  0.36476968  0.43307011  1
  Au  Au152  1  0.49997904  0.36520381  0.56731613  1
  Au  Au153  1  0.56713341  0.29892952  0.43295620  1
  Au  Au154  1  0.56728851  0.29952979  0.56792513  1
  Au  Au155  1  0.56943448  0.36316802  0.50006180  1
  Au  Au156  1  0.64776197  0.28691837  0.50029256  1
  Au  Au157  1  0.63666900  0.36315585  0.43291893  1
  Au  Au158  1  0.63687292  0.36348340  0.56706174  1
  Au  Au159  1  0.70343002  0.29696167  0.42108020  1
  Au  Au160  1  0.70295862  0.29686542  0.57915391  1
  Au  Au161  1  0.71316717  0.35243876  0.49997778  1
  Au  Au162  1  0.76581330  0.36706354  0.42405723  1
  Au  Au163  1  0.76563734  0.36685807  0.57587316  1
  Au  Au164  1  0.22912304  0.42968322  0.49923921  1
  Au  Au165  1  0.23003601  0.49981718  0.42522137  1
  Au  Au166  1  0.22902841  0.49970458  0.57249314  1
  Au  Au167  1  0.29948893  0.43217771  0.43205509  1
  Au  Au168  1  0.29843626  0.43319081  0.56674337  1
  Au  Au169  1  0.29281079  0.49981543  0.49891847  1
  Au  Au170  1  0.36310122  0.43063824  0.49970773  1
  Au  Au171  1  0.36475142  0.50003469  0.43240722  1
  Au  Au172  1  0.36458001  0.50017176  0.56646888  1
  Au  Au173  1  0.43166920  0.43164598  0.43147681  1
  Au  Au174  1  0.43157032  0.43186024  0.56838559  1
  Au  Au175  1  0.43253226  0.50005508  0.49977726  1
  Au  Au176  1  0.49999662  0.43255870  0.49995840  1
  Au  Au177  1  0.50004516  0.49995950  0.43062318  1
  Au  Au178  1  0.50002333  0.49995620  0.56872553  1
  Au  Au179  1  0.56837725  0.43181722  0.43149124  1
  Au  Au180  1  0.56834242  0.43184243  0.56846593  1
  Au  Au181  1  0.56749742  0.49999875  0.49987517  1
  Au  Au182  1  0.63695163  0.43063086  0.49992857  1
  Au  Au183  1  0.63544526  0.50008346  0.43294972  1
  Au  Au184  1  0.63549177  0.49996029  0.56672852  1
  Au  Au185  1  0.70100880  0.43259355  0.43261600  1
  Au  Au186  1  0.70119929  0.43272562  0.56710805  1
  Au  Au187  1  0.70767083  0.49994979  0.49967392  1
  Au  Au188  1  0.77084967  0.42929689  0.49985861  1
  Au  Au189  1  0.77017048  0.49997440  0.42552588  1
  Au  Au190  1  0.77021884  0.49984487  0.57374100  1
  Au  Au191  1  0.22903395  0.57010436  0.49924175  1
  Au  Au192  1  0.23404203  0.63294586  0.42338326  1
  Au  Au193  1  0.23433050  0.63322499  0.57479343  1
  Au  Au194  1  0.29896110  0.56765866  0.43223458  1
  Au  Au195  1  0.29838078  0.56691463  0.56627722  1
  Au  Au196  1  0.28689942  0.64742781  0.49919966  1
  Au  Au197  1  0.36306683  0.56945537  0.49945247  1
  Au  Au198  1  0.36361271  0.63664607  0.43241568  1
  Au  Au199  1  0.36291119  0.63605825  0.56700940  1
  Au  Au200  1  0.43187750  0.56815810  0.43117606  1
  Au  Au201  1  0.43161390  0.56819580  0.56833737  1
  Au  Au202  1  0.43054842  0.63684938  0.49991144  1
  Au  Au203  1  0.49993577  0.56747013  0.49986643  1
  Au  Au204  1  0.50002785  0.63510121  0.43267456  1
  Au  Au205  1  0.49998185  0.63501735  0.56708917  1
  Au  Au206  1  0.56837097  0.56833280  0.43149514  1
  Au  Au207  1  0.56859540  0.56828359  0.56808198  1
  Au  Au208  1  0.56941027  0.63685746  0.49990669  1
  Au  Au209  1  0.63699254  0.56941071  0.49992422  1
  Au  Au210  1  0.63678049  0.63689469  0.43295764  1
  Au  Au211  1  0.63699443  0.63666925  0.56695037  1
  Au  Au212  1  0.70093512  0.56742512  0.43266395  1
  Au  Au213  1  0.70129043  0.56720779  0.56701006  1
  Au  Au214  1  0.71304474  0.64752009  0.49986761  1
  Au  Au215  1  0.77084452  0.57047469  0.49948115  1
  Au  Au216  1  0.76558712  0.63324950  0.42399575  1
  Au  Au217  1  0.76562121  0.63323482  0.57562499  1
  Au  Au218  1  0.29712892  0.70288962  0.42069511  1
  Au  Au219  1  0.29685906  0.70265484  0.57863713  1
  Au  Au220  1  0.35228215  0.71318979  0.49988770  1
  Au  Au221  1  0.36723241  0.76544126  0.42366384  1
  Au  Au222  1  0.36719201  0.76509940  0.57649422  1
  Au  Au223  1  0.43286888  0.70096418  0.43251912  1
  Au  Au224  1  0.43214967  0.69995911  0.56811240  1
  Au  Au225  1  0.42965122  0.76960792  0.50042288  1
  Au  Au226  1  0.49988236  0.70651718  0.50018900  1
  Au  Au227  1  0.50006786  0.76989977  0.42614412  1
  Au  Au228  1  0.49923277  0.76918205  0.57435533  1
  Au  Au229  1  0.56734364  0.70089869  0.43259814  1
  Au  Au230  1  0.56721045  0.70067457  0.56749424  1
  Au  Au231  1  0.57040232  0.76966153  0.50035588  1
  Au  Au232  1  0.64851198  0.71414417  0.49995650  1
  Au  Au233  1  0.63273567  0.76576047  0.42378139  1
  Au  Au234  1  0.63248417  0.76542045  0.57650222  1
  Au  Au235  1  0.70310933  0.70339411  0.42104067  1
  Au  Au236  1  0.70298762  0.70334069  0.57893222  1
