# generated using pymatgen
data_H(Pt65Au53)2
_symmetry_space_group_name_H-M   'P 1'
_cell_length_a   30.00000000
_cell_length_b   30.00000000
_cell_length_c   30.00000000
_cell_angle_alpha   90.00000000
_cell_angle_beta   90.00000000
_cell_angle_gamma   90.00000000
_symmetry_Int_Tables_number   1
_chemical_formula_structural   H(Pt65Au53)2
_chemical_formula_sum   'H1 Pt130 Au106'
_cell_volume   27000.00000000
_cell_formula_units_Z   1
loop_
 _symmetry_equiv_pos_site_id
 _symmetry_equiv_pos_as_xyz
  1  'x, y, z'
loop_
 _atom_site_type_symbol
 _atom_site_label
 _atom_site_symmetry_multiplicity
 _atom_site_fract_x
 _atom_site_fract_y
 _atom_site_fract_z
 _atom_site_occupancy
  H  H0  1  0.34221142  0.58251759  0.80672447  1
  Pt  Pt1  1  0.43397823  0.37212120  0.23841197  1
  Pt  Pt2  1  0.56627454  0.37216074  0.23834779  1
  Pt  Pt3  1  0.37242159  0.43374091  0.23828579  1
  Pt  Pt4  1  0.43498689  0.49996240  0.23836780  1
  Pt  Pt5  1  0.50014868  0.43477322  0.23842882  1
  Pt  Pt6  1  0.56533032  0.50005549  0.23842731  1
  Pt  Pt7  1  0.62780936  0.43375946  0.23827050  1
  Pt  Pt8  1  0.37247663  0.56617193  0.23817522  1
  Pt  Pt9  1  0.43391950  0.62785949  0.23839914  1
  Pt  Pt10  1  0.50011100  0.56525232  0.23846294  1
  Pt  Pt11  1  0.56624041  0.62790665  0.23838380  1
  Pt  Pt12  1  0.62784010  0.56640835  0.23836054  1
  Pt  Pt13  1  0.43312082  0.24336256  0.35985359  1
  Pt  Pt14  1  0.43277875  0.24429284  0.64086117  1
  Pt  Pt15  1  0.56696072  0.24332197  0.35973837  1
  Pt  Pt16  1  0.56672531  0.24372253  0.64079797  1
  Pt  Pt17  1  0.30181941  0.36533822  0.35825064  1
  Pt  Pt18  1  0.30171224  0.36642257  0.64183512  1
  Pt  Pt19  1  0.36527345  0.30193943  0.35839984  1
  Pt  Pt20  1  0.36507454  0.30303278  0.64198696  1
  Pt  Pt21  1  0.36496390  0.36474819  0.29614507  1
  Pt  Pt22  1  0.43034117  0.30449551  0.29685091  1
  Pt  Pt23  1  0.43431187  0.36641035  0.36434791  1
  Pt  Pt24  1  0.43439543  0.36721848  0.63608463  1
  Pt  Pt25  1  0.50008155  0.30025262  0.35931554  1
  Pt  Pt26  1  0.49997745  0.30086556  0.64118466  1
  Pt  Pt27  1  0.50014799  0.36130350  0.29462877  1
  Pt  Pt28  1  0.56988241  0.30456092  0.29680145  1
  Pt  Pt29  1  0.56585296  0.36639672  0.36431968  1
  Pt  Pt30  1  0.56582838  0.36684435  0.63594916  1
  Pt  Pt31  1  0.63489873  0.30187512  0.35826846  1
  Pt  Pt32  1  0.63466997  0.30215975  0.64191327  1
  Pt  Pt33  1  0.63525869  0.36481646  0.29618182  1
  Pt  Pt34  1  0.69833074  0.36534637  0.35823602  1
  Pt  Pt35  1  0.69827070  0.36536354  0.64155037  1
  Pt  Pt36  1  0.24329923  0.43320094  0.35939098  1
  Pt  Pt37  1  0.24306453  0.43427702  0.64055668  1
  Pt  Pt38  1  0.30469823  0.43028450  0.29663693  1
  Pt  Pt39  1  0.30045787  0.49992814  0.35929707  1
  Pt  Pt40  1  0.30064448  0.50037020  0.64064102  1
  Pt  Pt41  1  0.36644036  0.43414414  0.36432568  1
  Pt  Pt42  1  0.36656816  0.43468388  0.63535802  1
  Pt  Pt43  1  0.36136276  0.49997269  0.29442205  1
  Pt  Pt44  1  0.43402083  0.43391196  0.30331886  1
  Pt  Pt45  1  0.43181299  0.49995292  0.36431012  1
  Pt  Pt46  1  0.43195304  0.50079199  0.63545892  1
  Pt  Pt47  1  0.50012207  0.43170375  0.36438998  1
  Pt  Pt48  1  0.50009405  0.43232531  0.63592772  1
  Pt  Pt49  1  0.50010878  0.50002510  0.30262687  1
  Pt  Pt50  1  0.56625212  0.43395211  0.30327238  1
  Pt  Pt51  1  0.56832113  0.49999724  0.36438731  1
  Pt  Pt52  1  0.56858936  0.50007869  0.63550443  1
  Pt  Pt53  1  0.63371875  0.43431874  0.36431333  1
  Pt  Pt54  1  0.63388371  0.43437461  0.63555710  1
  Pt  Pt55  1  0.63882448  0.50002715  0.29436033  1
  Pt  Pt56  1  0.69542793  0.43021244  0.29665995  1
  Pt  Pt57  1  0.69975182  0.50004963  0.35917500  1
  Pt  Pt58  1  0.70024902  0.50002187  0.64024779  1
  Pt  Pt59  1  0.75677640  0.43321425  0.35945236  1
  Pt  Pt60  1  0.75701189  0.43303207  0.63998911  1
  Pt  Pt61  1  0.24335086  0.56667715  0.35940182  1
  Pt  Pt62  1  0.24295336  0.56618031  0.64013273  1
  Pt  Pt63  1  0.30473904  0.56968138  0.29657430  1
  Pt  Pt64  1  0.30184705  0.63443914  0.35824388  1
  Pt  Pt65  1  0.30138173  0.63372737  0.64178605  1
  Pt  Pt66  1  0.36645202  0.56569919  0.36432295  1
  Pt  Pt67  1  0.36573359  0.56579654  0.63548922  1
  Pt  Pt68  1  0.36493272  0.63513344  0.29618913  1
  Pt  Pt69  1  0.43399015  0.56604666  0.30328560  1
  Pt  Pt70  1  0.43443565  0.63355898  0.36424800  1
  Pt  Pt71  1  0.43465443  0.63230203  0.63618093  1
  Pt  Pt72  1  0.50007391  0.56828849  0.36434737  1
  Pt  Pt73  1  0.50103640  0.56794748  0.63481244  1
  Pt  Pt74  1  0.50008608  0.63887324  0.29458210  1
  Pt  Pt75  1  0.56616275  0.56612180  0.30328990  1
  Pt  Pt76  1  0.56590050  0.63364827  0.36427053  1
  Pt  Pt77  1  0.56632583  0.63349390  0.63540952  1
  Pt  Pt78  1  0.63365997  0.56579291  0.36431010  1
  Pt  Pt79  1  0.63408261  0.56588287  0.63515198  1
  Pt  Pt80  1  0.63522661  0.63532508  0.29618483  1
  Pt  Pt81  1  0.69539404  0.56981646  0.29674267  1
  Pt  Pt82  1  0.69831364  0.63478446  0.35823143  1
  Pt  Pt83  1  0.69852496  0.63489509  0.64131135  1
  Pt  Pt84  1  0.75668598  0.56692818  0.35965764  1
  Pt  Pt85  1  0.75726531  0.56699036  0.63968643  1
  Pt  Pt86  1  0.36526891  0.69794103  0.35848881  1
  Pt  Pt87  1  0.36503796  0.69694969  0.64199489  1
  Pt  Pt88  1  0.43020553  0.69551588  0.29689382  1
  Pt  Pt89  1  0.43280676  0.75668637  0.36006318  1
  Pt  Pt90  1  0.43288978  0.75565951  0.64089631  1
  Pt  Pt91  1  0.50002414  0.69987114  0.35927495  1
  Pt  Pt92  1  0.49993453  0.69903783  0.64183752  1
  Pt  Pt93  1  0.56985126  0.69557259  0.29681718  1
  Pt  Pt94  1  0.56698643  0.75682060  0.35967841  1
  Pt  Pt95  1  0.56648419  0.75620787  0.64040099  1
  Pt  Pt96  1  0.63491434  0.69825442  0.35819169  1
  Pt  Pt97  1  0.63476409  0.69800898  0.64159913  1
  Pt  Pt98  1  0.36470912  0.36622250  0.70387704  1
  Pt  Pt99  1  0.42998570  0.30572461  0.70365158  1
  Pt  Pt100  1  0.43381271  0.37359603  0.76178785  1
  Pt  Pt101  1  0.50003503  0.36209736  0.70568393  1
  Pt  Pt102  1  0.56981809  0.30522148  0.70356895  1
  Pt  Pt103  1  0.56637306  0.37312495  0.76170438  1
  Pt  Pt104  1  0.63549618  0.36513927  0.70387560  1
  Pt  Pt105  1  0.30484573  0.43191947  0.70325736  1
  Pt  Pt106  1  0.37201908  0.43504925  0.76190148  1
  Pt  Pt107  1  0.36216608  0.50146550  0.70535461  1
  Pt  Pt108  1  0.43380628  0.43511146  0.69687459  1
  Pt  Pt109  1  0.43469015  0.50090207  0.76217879  1
  Pt  Pt110  1  0.50028824  0.43557583  0.76170006  1
  Pt  Pt111  1  0.50007294  0.50074137  0.69750528  1
  Pt  Pt112  1  0.56644081  0.43444121  0.69674830  1
  Pt  Pt113  1  0.56601594  0.50014982  0.76166345  1
  Pt  Pt114  1  0.62852945  0.43407722  0.76169363  1
  Pt  Pt115  1  0.63912043  0.50012364  0.70505670  1
  Pt  Pt116  1  0.69589501  0.43043204  0.70306264  1
  Pt  Pt117  1  0.30340663  0.56950501  0.70415187  1
  Pt  Pt118  1  0.36998082  0.56672569  0.76543929  1
  Pt  Pt119  1  0.36423828  0.63418860  0.70400118  1
  Pt  Pt120  1  0.43261131  0.56545534  0.69750653  1
  Pt  Pt121  1  0.43362661  0.62595747  0.76145068  1
  Pt  Pt122  1  0.50076047  0.56478380  0.76208063  1
  Pt  Pt123  1  0.50007649  0.63678890  0.70541217  1
  Pt  Pt124  1  0.56687571  0.56595414  0.69664238  1
  Pt  Pt125  1  0.56678844  0.62723058  0.76163156  1
  Pt  Pt126  1  0.62897615  0.56614234  0.76164888  1
  Pt  Pt127  1  0.63565102  0.63496514  0.70358333  1
  Pt  Pt128  1  0.69609184  0.56962426  0.70265552  1
  Pt  Pt129  1  0.43004494  0.69389635  0.70348296  1
  Pt  Pt130  1  0.56959996  0.69471901  0.70320996  1
  Au  Au131  1  0.36682492  0.23453770  0.42422142  1
  Au  Au132  1  0.36662906  0.23555722  0.57647722  1
  Au  Au133  1  0.42949241  0.23026477  0.50041126  1
  Au  Au134  1  0.50015742  0.22996379  0.42595371  1
  Au  Au135  1  0.49981284  0.23037444  0.57466580  1
  Au  Au136  1  0.57085989  0.22998901  0.50013946  1
  Au  Au137  1  0.63331632  0.23436140  0.42378356  1
  Au  Au138  1  0.63282717  0.23435462  0.57646245  1
  Au  Au139  1  0.23358185  0.36720072  0.42370060  1
  Au  Au140  1  0.23369502  0.36788711  0.57664163  1
  Au  Au141  1  0.29661692  0.29705068  0.42109814  1
  Au  Au142  1  0.29651162  0.29795095  0.57907046  1
  Au  Au143  1  0.28462355  0.35107947  0.50002764  1
  Au  Au144  1  0.35185711  0.28717668  0.50004840  1
  Au  Au145  1  0.36308371  0.36314660  0.43306133  1
  Au  Au146  1  0.36306503  0.36378974  0.56705805  1
  Au  Au147  1  0.43281426  0.29892583  0.43287916  1
  Au  Au148  1  0.43253409  0.29957198  0.56773706  1
  Au  Au149  1  0.43050975  0.36310812  0.50000710  1
  Au  Au150  1  0.50022473  0.29286612  0.50029162  1
  Au  Au151  1  0.50006627  0.36452637  0.43314007  1
  Au  Au152  1  0.50003649  0.36489077  0.56710608  1
  Au  Au153  1  0.56762377  0.29892389  0.43279831  1
  Au  Au154  1  0.56747709  0.29919366  0.56761718  1
  Au  Au155  1  0.56950142  0.36308089  0.49999234  1
  Au  Au156  1  0.64903029  0.28553536  0.50004584  1
  Au  Au157  1  0.63713894  0.36316895  0.43296944  1
  Au  Au158  1  0.63699983  0.36316272  0.56686171  1
  Au  Au159  1  0.70349458  0.29698332  0.42102181  1
  Au  Au160  1  0.70315038  0.29675822  0.57893587  1
  Au  Au161  1  0.71427087  0.35145183  0.49969642  1
  Au  Au162  1  0.76630034  0.36741695  0.42394649  1
  Au  Au163  1  0.76573684  0.36674526  0.57584122  1
  Au  Au164  1  0.22906084  0.42942019  0.50031818  1
  Au  Au165  1  0.22965138  0.49993170  0.42558106  1
  Au  Au166  1  0.22894288  0.50001272  0.57352059  1
  Au  Au167  1  0.29854956  0.43223706  0.43277624  1
  Au  Au168  1  0.29873338  0.43298572  0.56716976  1
  Au  Au169  1  0.29228275  0.49988243  0.49967664  1
  Au  Au170  1  0.36297888  0.43065015  0.49992588  1
  Au  Au171  1  0.36435222  0.49988049  0.43310512  1
  Au  Au172  1  0.36450828  0.50027654  0.56662355  1
  Au  Au173  1  0.43165778  0.43164687  0.43162459  1
  Au  Au174  1  0.43169901  0.43191627  0.56836495  1
  Au  Au175  1  0.43254492  0.50000223  0.49990200  1
  Au  Au176  1  0.50001331  0.43251773  0.49996992  1
  Au  Au177  1  0.50005106  0.49995207  0.43093728  1
  Au  Au178  1  0.50018496  0.49992172  0.56868200  1
  Au  Au179  1  0.56839265  0.43164524  0.43161436  1
  Au  Au180  1  0.56842899  0.43167466  0.56836682  1
  Au  Au181  1  0.56750083  0.49999441  0.49992107  1
  Au  Au182  1  0.63702799  0.43052905  0.49984170  1
  Au  Au183  1  0.63564434  0.50001269  0.43308393  1
  Au  Au184  1  0.63578208  0.50002011  0.56660196  1
  Au  Au185  1  0.70133949  0.43263771  0.43269355  1
  Au  Au186  1  0.70126981  0.43262740  0.56703279  1
  Au  Au187  1  0.70776362  0.50005836  0.49973668  1
  Au  Au188  1  0.77083095  0.42933649  0.50011782  1
  Au  Au189  1  0.77037184  0.50004951  0.42563850  1
  Au  Au190  1  0.77064943  0.49993377  0.57347069  1
  Au  Au191  1  0.22847589  0.57012281  0.49964157  1
  Au  Au192  1  0.23356357  0.63247001  0.42383448  1
  Au  Au193  1  0.23348604  0.63241946  0.57596081  1
  Au  Au194  1  0.29868900  0.56738981  0.43277349  1
  Au  Au195  1  0.29814490  0.56704908  0.56659887  1
  Au  Au196  1  0.28554532  0.64776818  0.49984231  1
  Au  Au197  1  0.36306159  0.56938163  0.49988811  1
  Au  Au198  1  0.36316126  0.63668122  0.43287703  1
  Au  Au199  1  0.36291011  0.63607834  0.56709057  1
  Au  Au200  1  0.43167466  0.56831120  0.43158939  1
  Au  Au201  1  0.43184736  0.56832372  0.56832626  1
  Au  Au202  1  0.43055272  0.63690329  0.50000395  1
  Au  Au203  1  0.50000711  0.56750630  0.49991165  1
  Au  Au204  1  0.50013312  0.63550188  0.43310675  1
  Au  Au205  1  0.50025299  0.63541082  0.56691230  1
  Au  Au206  1  0.56839587  0.56836598  0.43158466  1
  Au  Au207  1  0.56879415  0.56839050  0.56797160  1
  Au  Au208  1  0.56953752  0.63704036  0.49982273  1
  Au  Au209  1  0.63703198  0.56942915  0.49988191  1
  Au  Au210  1  0.63719502  0.63700752  0.43302272  1
  Au  Au211  1  0.63729433  0.63724545  0.56631956  1
  Au  Au212  1  0.70128790  0.56759340  0.43282426  1
  Au  Au213  1  0.70153474  0.56781763  0.56695998  1
  Au  Au214  1  0.71439327  0.64868495  0.49972352  1
  Au  Au215  1  0.77088375  0.57073995  0.50007472  1
  Au  Au216  1  0.76624874  0.63287213  0.42389029  1
  Au  Au217  1  0.76612690  0.63369655  0.57592900  1
  Au  Au218  1  0.29644897  0.70268258  0.42108977  1
  Au  Au219  1  0.29647793  0.70204551  0.57904472  1
  Au  Au220  1  0.35173196  0.71272484  0.50036065  1
  Au  Au221  1  0.36656843  0.76506585  0.42483933  1
  Au  Au222  1  0.36659611  0.76451883  0.57679811  1
  Au  Au223  1  0.43280970  0.70097823  0.43284339  1
  Au  Au224  1  0.43224631  0.70007970  0.56797752  1
  Au  Au225  1  0.42935175  0.76971773  0.50057676  1
  Au  Au226  1  0.50001876  0.70746431  0.50015502  1
  Au  Au227  1  0.50009877  0.77008600  0.42586454  1
  Au  Au228  1  0.49928561  0.76958927  0.57465818  1
  Au  Au229  1  0.56759838  0.70120308  0.43268838  1
  Au  Au230  1  0.56734648  0.70110201  0.56709416  1
  Au  Au231  1  0.57082046  0.77032493  0.49986302  1
  Au  Au232  1  0.64889492  0.71454201  0.50002638  1
  Au  Au233  1  0.63332846  0.76579748  0.42368701  1
  Au  Au234  1  0.63268773  0.76594598  0.57634246  1
  Au  Au235  1  0.70345003  0.70325720  0.42103063  1
  Au  Au236  1  0.70329569  0.70362491  0.57875060  1
