# generated using pymatgen
data_Pt65Au53
_symmetry_space_group_name_H-M   'P 1'
_cell_length_a   30.00000000
_cell_length_b   30.00000000
_cell_length_c   30.00000000
_cell_angle_alpha   90.00000000
_cell_angle_beta   90.00000000
_cell_angle_gamma   90.00000000
_symmetry_Int_Tables_number   1
_chemical_formula_structural   Pt65Au53
_chemical_formula_sum   'Pt130 Au106'
_cell_volume   27000.00000000
_cell_formula_units_Z   2
loop_
 _symmetry_equiv_pos_site_id
 _symmetry_equiv_pos_as_xyz
  1  'x, y, z'
loop_
 _atom_site_type_symbol
 _atom_site_label
 _atom_site_symmetry_multiplicity
 _atom_site_fract_x
 _atom_site_fract_y
 _atom_site_fract_z
 _atom_site_occupancy
  Pt  Pt0  1  0.43802005  0.24162291  0.50000000  1
  Pt  Pt1  1  0.50000000  0.24142232  0.43588005  1
  Pt  Pt2  1  0.50000000  0.24142232  0.56411995  1
  Pt  Pt3  1  0.56197995  0.24162291  0.50000000  1
  Pt  Pt4  1  0.30379334  0.36625592  0.50000000  1
  Pt  Pt5  1  0.36808358  0.30356689  0.50000000  1
  Pt  Pt6  1  0.36782079  0.36711986  0.43149043  1
  Pt  Pt7  1  0.36782079  0.36711986  0.56850957  1
  Pt  Pt8  1  0.43270264  0.36721448  0.36570663  1
  Pt  Pt9  1  0.43270264  0.36721448  0.63429337  1
  Pt  Pt10  1  0.50000000  0.30225365  0.36510731  1
  Pt  Pt11  1  0.50000000  0.30225365  0.63489269  1
  Pt  Pt12  1  0.50000000  0.36686936  0.30192132  1
  Pt  Pt13  1  0.43410935  0.30543011  0.43264739  1
  Pt  Pt14  1  0.43410935  0.30543011  0.56735261  1
  Pt  Pt15  1  0.43413034  0.36979751  0.50000000  1
  Pt  Pt16  1  0.50000000  0.30896331  0.50000000  1
  Pt  Pt17  1  0.50000000  0.36986774  0.43206411  1
  Pt  Pt18  1  0.50000000  0.36986774  0.56793589  1
  Pt  Pt19  1  0.56729736  0.36721448  0.36570663  1
  Pt  Pt20  1  0.56729736  0.36721448  0.63429337  1
  Pt  Pt21  1  0.56589065  0.30543011  0.43264739  1
  Pt  Pt22  1  0.56589065  0.30543011  0.56735261  1
  Pt  Pt23  1  0.56586966  0.36979751  0.50000000  1
  Pt  Pt24  1  0.63191642  0.30356689  0.50000000  1
  Pt  Pt25  1  0.63217921  0.36711986  0.43149043  1
  Pt  Pt26  1  0.63217921  0.36711986  0.56850957  1
  Pt  Pt27  1  0.69620666  0.36625592  0.50000000  1
  Pt  Pt28  1  0.24227040  0.43615209  0.50000000  1
  Pt  Pt29  1  0.24240349  0.49893977  0.43625915  1
  Pt  Pt30  1  0.24240349  0.49893977  0.56374085  1
  Pt  Pt31  1  0.30297297  0.49987063  0.36614145  1
  Pt  Pt32  1  0.30297297  0.49987063  0.63385855  1
  Pt  Pt33  1  0.36776660  0.43244244  0.36647483  1
  Pt  Pt34  1  0.36776660  0.43244244  0.63352517  1
  Pt  Pt35  1  0.36669772  0.50006779  0.30213027  1
  Pt  Pt36  1  0.30612663  0.43337742  0.43346023  1
  Pt  Pt37  1  0.30612663  0.43337742  0.56653977  1
  Pt  Pt38  1  0.30792244  0.50101712  0.50000000  1
  Pt  Pt39  1  0.37057304  0.43280895  0.50000000  1
  Pt  Pt40  1  0.36957424  0.50021010  0.43334999  1
  Pt  Pt41  1  0.36957424  0.50021010  0.56665001  1
  Pt  Pt42  1  0.43473565  0.43484067  0.30330583  1
  Pt  Pt43  1  0.43382287  0.50013989  0.36832357  1
  Pt  Pt44  1  0.43382287  0.50013989  0.63167643  1
  Pt  Pt45  1  0.50000000  0.43427595  0.36816230  1
  Pt  Pt46  1  0.50000000  0.43427595  0.63183770  1
  Pt  Pt47  1  0.50000000  0.50018640  0.30076749  1
  Pt  Pt48  1  0.43417127  0.43412941  0.43308816  1
  Pt  Pt49  1  0.43417127  0.43412941  0.56691184  1
  Pt  Pt50  1  0.43447404  0.50010463  0.50000000  1
  Pt  Pt51  1  0.50000000  0.43461465  0.50000000  1
  Pt  Pt52  1  0.50000000  0.50012439  0.43388482  1
  Pt  Pt53  1  0.50000000  0.50012439  0.56611518  1
  Pt  Pt54  1  0.56526435  0.43484067  0.30330583  1
  Pt  Pt55  1  0.56617713  0.50013989  0.36832357  1
  Pt  Pt56  1  0.56617713  0.50013989  0.63167643  1
  Pt  Pt57  1  0.63223340  0.43244244  0.36647483  1
  Pt  Pt58  1  0.63223340  0.43244244  0.63352517  1
  Pt  Pt59  1  0.63330228  0.50006779  0.30213027  1
  Pt  Pt60  1  0.56582873  0.43412941  0.43308816  1
  Pt  Pt61  1  0.56582873  0.43412941  0.56691184  1
  Pt  Pt62  1  0.56552596  0.50010463  0.50000000  1
  Pt  Pt63  1  0.62942696  0.43280895  0.50000000  1
  Pt  Pt64  1  0.63042576  0.50021010  0.43334999  1
  Pt  Pt65  1  0.63042576  0.50021010  0.56665001  1
  Pt  Pt66  1  0.69702703  0.49987063  0.36614145  1
  Pt  Pt67  1  0.69702703  0.49987063  0.63385855  1
  Pt  Pt68  1  0.69387337  0.43337742  0.43346023  1
  Pt  Pt69  1  0.69387337  0.43337742  0.56653977  1
  Pt  Pt70  1  0.69207756  0.50101712  0.50000000  1
  Pt  Pt71  1  0.75772960  0.43615209  0.50000000  1
  Pt  Pt72  1  0.75759651  0.49893977  0.43625915  1
  Pt  Pt73  1  0.75759651  0.49893977  0.56374085  1
  Pt  Pt74  1  0.36742391  0.56752414  0.36603200  1
  Pt  Pt75  1  0.36742391  0.56752414  0.63396800  1
  Pt  Pt76  1  0.30501408  0.56652187  0.43384627  1
  Pt  Pt77  1  0.30501408  0.56652187  0.56615373  1
  Pt  Pt78  1  0.30393489  0.63324801  0.50000000  1
  Pt  Pt79  1  0.36997385  0.56715134  0.50000000  1
  Pt  Pt80  1  0.36750583  0.63256699  0.43169073  1
  Pt  Pt81  1  0.36750583  0.63256699  0.56830927  1
  Pt  Pt82  1  0.43440988  0.56531857  0.30318989  1
  Pt  Pt83  1  0.43257056  0.63247363  0.36600917  1
  Pt  Pt84  1  0.43257056  0.63247363  0.63399083  1
  Pt  Pt85  1  0.50000000  0.56589190  0.36796528  1
  Pt  Pt86  1  0.50000000  0.56589190  0.63203472  1
  Pt  Pt87  1  0.50000000  0.63311447  0.30196466  1
  Pt  Pt88  1  0.43407391  0.56587536  0.43307466  1
  Pt  Pt89  1  0.43407391  0.56587536  0.56692534  1
  Pt  Pt90  1  0.43370017  0.63018132  0.50000000  1
  Pt  Pt91  1  0.50000000  0.56541919  0.50000000  1
  Pt  Pt92  1  0.50000000  0.63004943  0.43237777  1
  Pt  Pt93  1  0.50000000  0.63004943  0.56762223  1
  Pt  Pt94  1  0.56559012  0.56531857  0.30318989  1
  Pt  Pt95  1  0.56742944  0.63247363  0.36600917  1
  Pt  Pt96  1  0.56742944  0.63247363  0.63399083  1
  Pt  Pt97  1  0.63257609  0.56752414  0.36603200  1
  Pt  Pt98  1  0.63257609  0.56752414  0.63396800  1
  Pt  Pt99  1  0.56592609  0.56587536  0.43307466  1
  Pt  Pt100  1  0.56592609  0.56587536  0.56692534  1
  Pt  Pt101  1  0.56629983  0.63018132  0.50000000  1
  Pt  Pt102  1  0.63002615  0.56715134  0.50000000  1
  Pt  Pt103  1  0.63249417  0.63256699  0.43169073  1
  Pt  Pt104  1  0.63249417  0.63256699  0.56830927  1
  Pt  Pt105  1  0.69498592  0.56652187  0.43384627  1
  Pt  Pt106  1  0.69498592  0.56652187  0.56615373  1
  Pt  Pt107  1  0.69606511  0.63324801  0.50000000  1
  Pt  Pt108  1  0.36757978  0.69702556  0.50000000  1
  Pt  Pt109  1  0.50000000  0.69750361  0.36545188  1
  Pt  Pt110  1  0.50000000  0.69750361  0.63454812  1
  Pt  Pt111  1  0.43390143  0.69447788  0.43274277  1
  Pt  Pt112  1  0.43390143  0.69447788  0.56725723  1
  Pt  Pt113  1  0.43782099  0.75802648  0.50000000  1
  Pt  Pt114  1  0.50000000  0.69090101  0.50000000  1
  Pt  Pt115  1  0.50000000  0.75830617  0.43600229  1
  Pt  Pt116  1  0.50000000  0.75830617  0.56399771  1
  Pt  Pt117  1  0.56609857  0.69447788  0.43274277  1
  Pt  Pt118  1  0.56609857  0.69447788  0.56725723  1
  Pt  Pt119  1  0.56217901  0.75802648  0.50000000  1
  Pt  Pt120  1  0.63242022  0.69702556  0.50000000  1
  Pt  Pt121  1  0.50000000  0.36686936  0.69807868  1
  Pt  Pt122  1  0.36669772  0.50006779  0.69786973  1
  Pt  Pt123  1  0.43473565  0.43484067  0.69669417  1
  Pt  Pt124  1  0.50000000  0.50018640  0.69923251  1
  Pt  Pt125  1  0.56526435  0.43484067  0.69669417  1
  Pt  Pt126  1  0.63330228  0.50006779  0.69786973  1
  Pt  Pt127  1  0.43440988  0.56531857  0.69681011  1
  Pt  Pt128  1  0.50000000  0.63311447  0.69803534  1
  Pt  Pt129  1  0.56559012  0.56531857  0.69681011  1
  Au  Au130  1  0.43427239  0.36793385  0.23693511  1
  Au  Au131  1  0.56572761  0.36793385  0.23693511  1
  Au  Au132  1  0.36785569  0.43430065  0.23694890  1
  Au  Au133  1  0.43349607  0.50014647  0.23128111  1
  Au  Au134  1  0.50000000  0.43404827  0.23147336  1
  Au  Au135  1  0.56650393  0.50014647  0.23128111  1
  Au  Au136  1  0.63214431  0.43430065  0.23694890  1
  Au  Au137  1  0.36756028  0.56592767  0.23703490  1
  Au  Au138  1  0.43406592  0.63207032  0.23677947  1
  Au  Au139  1  0.50000000  0.56631322  0.23140802  1
  Au  Au140  1  0.56593408  0.63207032  0.23677947  1
  Au  Au141  1  0.63243972  0.56592767  0.23703490  1
  Au  Au142  1  0.37067012  0.23638915  0.43627032  1
  Au  Au143  1  0.37067012  0.23638915  0.56372968  1
  Au  Au144  1  0.43606513  0.23566624  0.36905468  1
  Au  Au145  1  0.43606513  0.23566624  0.63094532  1
  Au  Au146  1  0.56393487  0.23566624  0.36905468  1
  Au  Au147  1  0.56393487  0.23566624  0.63094532  1
  Au  Au148  1  0.62932988  0.23638915  0.43627032  1
  Au  Au149  1  0.62932988  0.23638915  0.56372968  1
  Au  Au150  1  0.23692451  0.36932968  0.43602667  1
  Au  Au151  1  0.23692451  0.36932968  0.56397333  1
  Au  Au152  1  0.29690187  0.36246088  0.36320872  1
  Au  Au153  1  0.29690187  0.36246088  0.63679128  1
  Au  Au154  1  0.36300503  0.29592631  0.36286723  1
  Au  Au155  1  0.36300503  0.29592631  0.63713277  1
  Au  Au156  1  0.36218193  0.36186178  0.29699492  1
  Au  Au157  1  0.30047408  0.29937312  0.43429755  1
  Au  Au158  1  0.30047408  0.29937312  0.56570245  1
  Au  Au159  1  0.43356975  0.29857314  0.29908126  1
  Au  Au160  1  0.56643025  0.29857314  0.29908126  1
  Au  Au161  1  0.63699497  0.29592631  0.36286723  1
  Au  Au162  1  0.63699497  0.29592631  0.63713277  1
  Au  Au163  1  0.63781807  0.36186178  0.29699492  1
  Au  Au164  1  0.70309813  0.36246088  0.36320872  1
  Au  Au165  1  0.70309813  0.36246088  0.63679128  1
  Au  Au166  1  0.69952592  0.29937312  0.43429755  1
  Au  Au167  1  0.69952592  0.29937312  0.56570245  1
  Au  Au168  1  0.76307549  0.36932968  0.43602667  1
  Au  Au169  1  0.76307549  0.36932968  0.56397333  1
  Au  Au170  1  0.23654481  0.43533891  0.36930479  1
  Au  Au171  1  0.23654481  0.43533891  0.63069521  1
  Au  Au172  1  0.29915439  0.43337757  0.29962947  1
  Au  Au173  1  0.70084561  0.43337757  0.29962947  1
  Au  Au174  1  0.76345519  0.43533891  0.36930479  1
  Au  Au175  1  0.76345519  0.43533891  0.63069521  1
  Au  Au176  1  0.23643584  0.56429919  0.37040067  1
  Au  Au177  1  0.23643584  0.56429919  0.62959933  1
  Au  Au178  1  0.23302830  0.56432689  0.50000000  1
  Au  Au179  1  0.23747561  0.63214453  0.43590097  1
  Au  Au180  1  0.23747561  0.63214453  0.56409903  1
  Au  Au181  1  0.29869337  0.56614959  0.29983762  1
  Au  Au182  1  0.29702412  0.63732476  0.36305922  1
  Au  Au183  1  0.29702412  0.63732476  0.63694078  1
  Au  Au184  1  0.36201719  0.63814611  0.29680013  1
  Au  Au185  1  0.63798281  0.63814611  0.29680013  1
  Au  Au186  1  0.70130663  0.56614959  0.29983762  1
  Au  Au187  1  0.70297588  0.63732476  0.36305922  1
  Au  Au188  1  0.70297588  0.63732476  0.63694078  1
  Au  Au189  1  0.76356416  0.56429919  0.37040067  1
  Au  Au190  1  0.76356416  0.56429919  0.62959933  1
  Au  Au191  1  0.76697170  0.56432689  0.50000000  1
  Au  Au192  1  0.76252439  0.63214453  0.43590097  1
  Au  Au193  1  0.76252439  0.63214453  0.56409903  1
  Au  Au194  1  0.36333838  0.70368931  0.36301659  1
  Au  Au195  1  0.36333838  0.70368931  0.63698341  1
  Au  Au196  1  0.30058753  0.70109364  0.43423758  1
  Au  Au197  1  0.30058753  0.70109364  0.56576242  1
  Au  Au198  1  0.37070307  0.76380560  0.43620874  1
  Au  Au199  1  0.37070307  0.76380560  0.56379126  1
  Au  Au200  1  0.43387479  0.70116420  0.29918222  1
  Au  Au201  1  0.43615518  0.76423554  0.36905339  1
  Au  Au202  1  0.43615518  0.76423554  0.63094661  1
  Au  Au203  1  0.56612521  0.70116420  0.29918222  1
  Au  Au204  1  0.56384482  0.76423554  0.36905339  1
  Au  Au205  1  0.56384482  0.76423554  0.63094661  1
  Au  Au206  1  0.63666162  0.70368931  0.36301659  1
  Au  Au207  1  0.63666162  0.70368931  0.63698341  1
  Au  Au208  1  0.62929693  0.76380560  0.43620874  1
  Au  Au209  1  0.62929693  0.76380560  0.56379126  1
  Au  Au210  1  0.69941247  0.70109364  0.43423758  1
  Au  Au211  1  0.69941247  0.70109364  0.56576242  1
  Au  Au212  1  0.36218193  0.36186178  0.70300508  1
  Au  Au213  1  0.43356975  0.29857314  0.70091874  1
  Au  Au214  1  0.43427239  0.36793385  0.76306489  1
  Au  Au215  1  0.56643025  0.29857314  0.70091874  1
  Au  Au216  1  0.56572761  0.36793385  0.76306489  1
  Au  Au217  1  0.63781807  0.36186178  0.70300508  1
  Au  Au218  1  0.29915439  0.43337757  0.70037053  1
  Au  Au219  1  0.36785569  0.43430065  0.76305110  1
  Au  Au220  1  0.43349607  0.50014647  0.76871889  1
  Au  Au221  1  0.50000000  0.43404827  0.76852664  1
  Au  Au222  1  0.56650393  0.50014647  0.76871889  1
  Au  Au223  1  0.63214431  0.43430065  0.76305110  1
  Au  Au224  1  0.70084561  0.43337757  0.70037053  1
  Au  Au225  1  0.29869337  0.56614959  0.70016238  1
  Au  Au226  1  0.36756028  0.56592767  0.76296510  1
  Au  Au227  1  0.36201719  0.63814611  0.70319987  1
  Au  Au228  1  0.43406592  0.63207032  0.76322053  1
  Au  Au229  1  0.50000000  0.56631322  0.76859198  1
  Au  Au230  1  0.56593408  0.63207032  0.76322053  1
  Au  Au231  1  0.63243972  0.56592767  0.76296510  1
  Au  Au232  1  0.63798281  0.63814611  0.70319987  1
  Au  Au233  1  0.70130663  0.56614959  0.70016238  1
  Au  Au234  1  0.43387479  0.70116420  0.70081778  1
  Au  Au235  1  0.56612521  0.70116420  0.70081778  1
