# generated using pymatgen
data_HPt94Au149
_symmetry_space_group_name_H-M   'P 1'
_cell_length_a   30.00000000
_cell_length_b   30.00000000
_cell_length_c   30.00000000
_cell_angle_alpha   90.00000000
_cell_angle_beta   90.00000000
_cell_angle_gamma   90.00000000
_symmetry_Int_Tables_number   1
_chemical_formula_structural   HPt94Au149
_chemical_formula_sum   'H1 Pt94 Au149'
_cell_volume   27000.00000000
_cell_formula_units_Z   1
loop_
 _symmetry_equiv_pos_site_id
 _symmetry_equiv_pos_as_xyz
  1  'x, y, z'
loop_
 _atom_site_type_symbol
 _atom_site_label
 _atom_site_symmetry_multiplicity
 _atom_site_fract_x
 _atom_site_fract_y
 _atom_site_fract_z
 _atom_site_occupancy
  H  H0  1  0.50069000  0.88576000  0.49906000  1
  Pt  Pt1  1  0.57848000  0.44457000  0.21106000  1
  Pt  Pt2  1  0.73544000  0.50027000  0.30690000  1
  Pt  Pt3  1  0.65696000  0.47242000  0.25898000  1
  Pt  Pt4  1  0.42152000  0.55543000  0.21106000  1
  Pt  Pt5  1  0.57848000  0.61112000  0.30690000  1
  Pt  Pt6  1  0.57848000  0.52785000  0.25898000  1
  Pt  Pt7  1  0.50000000  0.58328000  0.25898000  1
  Pt  Pt8  1  0.73544000  0.66682000  0.40275000  1
  Pt  Pt9  1  0.73544000  0.58354000  0.35483000  1
  Pt  Pt10  1  0.65696000  0.63897000  0.35483000  1
  Pt  Pt11  1  0.42152000  0.72198000  0.30690000  1
  Pt  Pt12  1  0.42152000  0.63870000  0.25898000  1
  Pt  Pt13  1  0.57848000  0.77767000  0.40275000  1
  Pt  Pt14  1  0.57848000  0.69440000  0.35483000  1
  Pt  Pt15  1  0.50000000  0.74983000  0.35483000  1
  Pt  Pt16  1  0.57848000  0.27802000  0.30784000  1
  Pt  Pt17  1  0.73544000  0.33372000  0.40369000  1
  Pt  Pt18  1  0.65696000  0.30587000  0.35576000  1
  Pt  Pt19  1  0.42152000  0.38888000  0.30784000  1
  Pt  Pt20  1  0.42152000  0.30560000  0.25992000  1
  Pt  Pt21  1  0.34304000  0.36103000  0.25992000  1
  Pt  Pt22  1  0.57848000  0.44457000  0.40369000  1
  Pt  Pt23  1  0.57848000  0.36130000  0.35576000  1
  Pt  Pt24  1  0.50000000  0.41672000  0.35576000  1
  Pt  Pt25  1  0.73544000  0.50027000  0.49953000  1
  Pt  Pt26  1  0.73544000  0.41699000  0.45161000  1
  Pt  Pt27  1  0.65696000  0.47242000  0.45161000  1
  Pt  Pt28  1  0.81392000  0.52812000  0.54745000  1
  Pt  Pt29  1  0.26456000  0.49973000  0.30784000  1
  Pt  Pt30  1  0.42152000  0.55543000  0.40369000  1
  Pt  Pt31  1  0.42152000  0.47215000  0.35576000  1
  Pt  Pt32  1  0.34304000  0.52758000  0.35576000  1
  Pt  Pt33  1  0.57848000  0.61112000  0.49953000  1
  Pt  Pt34  1  0.57848000  0.52785000  0.45161000  1
  Pt  Pt35  1  0.50000000  0.58328000  0.45161000  1
  Pt  Pt36  1  0.73544000  0.66682000  0.59538000  1
  Pt  Pt37  1  0.73544000  0.58354000  0.54745000  1
  Pt  Pt38  1  0.65696000  0.63897000  0.54745000  1
  Pt  Pt39  1  0.26456000  0.66628000  0.40369000  1
  Pt  Pt40  1  0.26456000  0.58301000  0.35576000  1
  Pt  Pt41  1  0.42152000  0.72198000  0.49953000  1
  Pt  Pt42  1  0.42152000  0.63870000  0.45161000  1
  Pt  Pt43  1  0.34304000  0.69413000  0.45161000  1
  Pt  Pt44  1  0.57848000  0.77767000  0.59538000  1
  Pt  Pt45  1  0.57848000  0.69440000  0.54745000  1
  Pt  Pt46  1  0.50000000  0.74983000  0.54745000  1
  Pt  Pt47  1  0.42152000  0.80525000  0.54745000  1
  Pt  Pt48  1  0.42152000  0.22233000  0.40462000  1
  Pt  Pt49  1  0.57848000  0.27802000  0.50047000  1
  Pt  Pt50  1  0.57848000  0.19475000  0.45255000  1
  Pt  Pt51  1  0.50000000  0.25017000  0.45255000  1
  Pt  Pt52  1  0.73544000  0.33372000  0.59631000  1
  Pt  Pt53  1  0.65696000  0.30587000  0.54839000  1
  Pt  Pt54  1  0.26456000  0.33318000  0.40462000  1
  Pt  Pt55  1  0.42152000  0.38888000  0.50047000  1
  Pt  Pt56  1  0.42152000  0.30560000  0.45255000  1
  Pt  Pt57  1  0.34304000  0.36103000  0.45255000  1
  Pt  Pt58  1  0.57848000  0.44457000  0.59631000  1
  Pt  Pt59  1  0.57848000  0.36130000  0.54839000  1
  Pt  Pt60  1  0.50000000  0.41672000  0.54839000  1
  Pt  Pt61  1  0.73544000  0.50027000  0.69216000  1
  Pt  Pt62  1  0.73544000  0.41699000  0.64424000  1
  Pt  Pt63  1  0.65696000  0.47242000  0.64424000  1
  Pt  Pt64  1  0.26456000  0.49973000  0.50047000  1
  Pt  Pt65  1  0.26456000  0.41646000  0.45255000  1
  Pt  Pt66  1  0.18608000  0.47188000  0.45255000  1
  Pt  Pt67  1  0.42152000  0.55543000  0.59631000  1
  Pt  Pt68  1  0.42152000  0.47215000  0.54839000  1
  Pt  Pt69  1  0.34304000  0.52758000  0.54839000  1
  Pt  Pt70  1  0.57848000  0.61112000  0.69216000  1
  Pt  Pt71  1  0.57848000  0.52785000  0.64424000  1
  Pt  Pt72  1  0.50000000  0.58328000  0.64424000  1
  Pt  Pt73  1  0.65696000  0.63897000  0.74008000  1
  Pt  Pt74  1  0.26456000  0.66628000  0.59631000  1
  Pt  Pt75  1  0.26456000  0.58301000  0.54839000  1
  Pt  Pt76  1  0.42152000  0.72198000  0.69216000  1
  Pt  Pt77  1  0.42152000  0.63870000  0.64424000  1
  Pt  Pt78  1  0.34304000  0.69413000  0.64424000  1
  Pt  Pt79  1  0.57848000  0.69440000  0.74008000  1
  Pt  Pt80  1  0.42152000  0.22233000  0.59725000  1
  Pt  Pt81  1  0.57848000  0.27802000  0.69310000  1
  Pt  Pt82  1  0.50000000  0.25017000  0.64517000  1
  Pt  Pt83  1  0.26456000  0.33318000  0.59725000  1
  Pt  Pt84  1  0.42152000  0.38888000  0.69310000  1
  Pt  Pt85  1  0.42152000  0.30560000  0.64517000  1
  Pt  Pt86  1  0.34304000  0.36103000  0.64517000  1
  Pt  Pt87  1  0.57848000  0.44457000  0.78894000  1
  Pt  Pt88  1  0.57848000  0.36130000  0.74102000  1
  Pt  Pt89  1  0.50000000  0.41672000  0.74102000  1
  Pt  Pt90  1  0.26456000  0.49973000  0.69310000  1
  Pt  Pt91  1  0.26456000  0.41646000  0.64517000  1
  Pt  Pt92  1  0.42152000  0.55543000  0.78894000  1
  Pt  Pt93  1  0.42152000  0.47215000  0.74102000  1
  Pt  Pt94  1  0.34304000  0.52758000  0.74102000  1
  Au  Au95  1  0.57848000  0.61112000  0.21059000  1
  Au  Au96  1  0.50000000  0.50000000  0.21106000  1
  Au  Au97  1  0.65696000  0.63897000  0.25851000  1
  Au  Au98  1  0.65696000  0.55570000  0.30690000  1
  Au  Au99  1  0.57848000  0.69440000  0.25851000  1
  Au  Au100  1  0.50000000  0.66655000  0.30690000  1
  Au  Au101  1  0.65696000  0.72225000  0.40275000  1
  Au  Au102  1  0.42152000  0.38888000  0.21153000  1
  Au  Au103  1  0.50000000  0.33345000  0.21153000  1
  Au  Au104  1  0.50000000  0.41672000  0.25945000  1
  Au  Au105  1  0.57848000  0.36130000  0.25945000  1
  Au  Au106  1  0.57848000  0.44457000  0.30737000  1
  Au  Au107  1  0.50000000  0.33345000  0.30784000  1
  Au  Au108  1  0.65696000  0.38915000  0.30737000  1
  Au  Au109  1  0.65696000  0.47242000  0.35529000  1
  Au  Au110  1  0.73544000  0.41699000  0.35529000  1
  Au  Au111  1  0.73544000  0.50027000  0.40322000  1
  Au  Au112  1  0.65696000  0.38915000  0.40369000  1
  Au  Au113  1  0.81392000  0.44484000  0.40322000  1
  Au  Au114  1  0.81392000  0.52812000  0.45114000  1
  Au  Au115  1  0.81392000  0.44484000  0.49953000  1
  Au  Au116  1  0.34304000  0.44430000  0.21153000  1
  Au  Au117  1  0.34304000  0.52758000  0.25945000  1
  Au  Au118  1  0.42152000  0.47215000  0.25945000  1
  Au  Au119  1  0.42152000  0.55543000  0.30737000  1
  Au  Au120  1  0.34304000  0.44430000  0.30784000  1
  Au  Au121  1  0.50000000  0.50000000  0.30737000  1
  Au  Au122  1  0.50000000  0.58328000  0.35529000  1
  Au  Au123  1  0.57848000  0.52785000  0.35529000  1
  Au  Au124  1  0.57848000  0.61112000  0.40322000  1
  Au  Au125  1  0.50000000  0.50000000  0.40369000  1
  Au  Au126  1  0.65696000  0.55570000  0.40322000  1
  Au  Au127  1  0.65696000  0.63897000  0.45114000  1
  Au  Au128  1  0.73544000  0.58354000  0.45114000  1
  Au  Au129  1  0.73544000  0.66682000  0.49906000  1
  Au  Au130  1  0.65696000  0.55570000  0.49953000  1
  Au  Au131  1  0.81392000  0.61139000  0.49906000  1
  Au  Au132  1  0.34304000  0.61085000  0.30737000  1
  Au  Au133  1  0.34304000  0.69413000  0.35529000  1
  Au  Au134  1  0.42152000  0.63870000  0.35529000  1
  Au  Au135  1  0.42152000  0.72198000  0.40322000  1
  Au  Au136  1  0.34304000  0.61085000  0.40369000  1
  Au  Au137  1  0.50000000  0.66655000  0.40322000  1
  Au  Au138  1  0.50000000  0.74983000  0.45114000  1
  Au  Au139  1  0.57848000  0.69440000  0.45114000  1
  Au  Au140  1  0.57848000  0.77767000  0.49906000  1
  Au  Au141  1  0.50000000  0.66655000  0.49953000  1
  Au  Au142  1  0.65696000  0.72225000  0.49906000  1
  Au  Au143  1  0.65696000  0.72225000  0.59538000  1
  Au  Au144  1  0.34304000  0.77740000  0.40322000  1
  Au  Au145  1  0.42152000  0.80525000  0.45114000  1
  Au  Au146  1  0.34304000  0.77740000  0.49953000  1
  Au  Au147  1  0.50000000  0.83310000  0.49906000  1
  Au  Au148  1  0.50000000  0.25017000  0.35623000  1
  Au  Au149  1  0.57848000  0.27802000  0.40415000  1
  Au  Au150  1  0.65696000  0.22260000  0.40415000  1
  Au  Au151  1  0.65696000  0.30587000  0.45208000  1
  Au  Au152  1  0.73544000  0.33372000  0.50000000  1
  Au  Au153  1  0.65696000  0.22260000  0.50047000  1
  Au  Au154  1  0.34304000  0.27775000  0.30831000  1
  Au  Au155  1  0.34304000  0.36103000  0.35623000  1
  Au  Au156  1  0.42152000  0.30560000  0.35623000  1
  Au  Au157  1  0.42152000  0.38888000  0.40415000  1
  Au  Au158  1  0.34304000  0.27775000  0.40462000  1
  Au  Au159  1  0.50000000  0.33345000  0.40415000  1
  Au  Au160  1  0.50000000  0.41672000  0.45208000  1
  Au  Au161  1  0.57848000  0.36130000  0.45208000  1
  Au  Au162  1  0.57848000  0.44457000  0.50000000  1
  Au  Au163  1  0.50000000  0.33345000  0.50047000  1
  Au  Au164  1  0.65696000  0.38915000  0.50000000  1
  Au  Au165  1  0.65696000  0.47242000  0.54792000  1
  Au  Au166  1  0.73544000  0.41699000  0.54792000  1
  Au  Au167  1  0.73544000  0.50027000  0.59585000  1
  Au  Au168  1  0.65696000  0.38915000  0.59631000  1
  Au  Au169  1  0.81392000  0.44484000  0.59585000  1
  Au  Au170  1  0.26456000  0.41646000  0.35623000  1
  Au  Au171  1  0.26456000  0.49973000  0.40415000  1
  Au  Au172  1  0.34304000  0.44430000  0.40415000  1
  Au  Au173  1  0.34304000  0.52758000  0.45208000  1
  Au  Au174  1  0.42152000  0.47215000  0.45208000  1
  Au  Au175  1  0.42152000  0.55543000  0.50000000  1
  Au  Au176  1  0.34304000  0.44430000  0.50047000  1
  Au  Au177  1  0.50000000  0.50000000  0.50000000  1
  Au  Au178  1  0.50000000  0.58328000  0.54792000  1
  Au  Au179  1  0.57848000  0.52785000  0.54792000  1
  Au  Au180  1  0.57848000  0.61112000  0.59585000  1
  Au  Au181  1  0.50000000  0.50000000  0.59631000  1
  Au  Au182  1  0.65696000  0.55570000  0.59585000  1
  Au  Au183  1  0.65696000  0.63897000  0.64377000  1
  Au  Au184  1  0.73544000  0.58354000  0.64377000  1
  Au  Au185  1  0.65696000  0.55570000  0.69216000  1
  Au  Au186  1  0.18608000  0.55516000  0.40415000  1
  Au  Au187  1  0.26456000  0.58301000  0.45208000  1
  Au  Au188  1  0.26456000  0.66628000  0.50000000  1
  Au  Au189  1  0.18608000  0.55516000  0.50047000  1
  Au  Au190  1  0.34304000  0.61085000  0.50000000  1
  Au  Au191  1  0.34304000  0.69413000  0.54792000  1
  Au  Au192  1  0.42152000  0.63870000  0.54792000  1
  Au  Au193  1  0.42152000  0.72198000  0.59585000  1
  Au  Au194  1  0.34304000  0.61085000  0.59631000  1
  Au  Au195  1  0.50000000  0.66655000  0.59585000  1
  Au  Au196  1  0.50000000  0.74983000  0.64377000  1
  Au  Au197  1  0.57848000  0.69440000  0.64377000  1
  Au  Au198  1  0.50000000  0.66655000  0.69216000  1
  Au  Au199  1  0.65696000  0.72225000  0.69169000  1
  Au  Au200  1  0.34304000  0.77740000  0.59585000  1
  Au  Au201  1  0.42152000  0.22233000  0.50094000  1
  Au  Au202  1  0.50000000  0.16690000  0.50094000  1
  Au  Au203  1  0.50000000  0.25017000  0.54886000  1
  Au  Au204  1  0.57848000  0.19475000  0.54886000  1
  Au  Au205  1  0.57848000  0.27802000  0.59678000  1
  Au  Au206  1  0.65696000  0.22260000  0.59678000  1
  Au  Au207  1  0.65696000  0.30587000  0.64471000  1
  Au  Au208  1  0.26456000  0.33318000  0.50094000  1
  Au  Au209  1  0.34304000  0.27775000  0.50094000  1
  Au  Au210  1  0.34304000  0.36103000  0.54886000  1
  Au  Au211  1  0.42152000  0.30560000  0.54886000  1
  Au  Au212  1  0.42152000  0.38888000  0.59678000  1
  Au  Au213  1  0.34304000  0.27775000  0.59725000  1
  Au  Au214  1  0.50000000  0.33345000  0.59678000  1
  Au  Au215  1  0.50000000  0.41672000  0.64471000  1
  Au  Au216  1  0.57848000  0.36130000  0.64471000  1
  Au  Au217  1  0.57848000  0.44457000  0.69263000  1
  Au  Au218  1  0.50000000  0.33345000  0.69310000  1
  Au  Au219  1  0.65696000  0.38915000  0.69263000  1
  Au  Au220  1  0.65696000  0.47242000  0.74055000  1
  Au  Au221  1  0.18608000  0.38861000  0.50094000  1
  Au  Au222  1  0.18608000  0.47188000  0.54886000  1
  Au  Au223  1  0.26456000  0.41646000  0.54886000  1
  Au  Au224  1  0.26456000  0.49973000  0.59678000  1
  Au  Au225  1  0.34304000  0.44430000  0.59678000  1
  Au  Au226  1  0.34304000  0.52758000  0.64471000  1
  Au  Au227  1  0.42152000  0.47215000  0.64471000  1
  Au  Au228  1  0.42152000  0.55543000  0.69263000  1
  Au  Au229  1  0.34304000  0.44430000  0.69310000  1
  Au  Au230  1  0.50000000  0.50000000  0.69263000  1
  Au  Au231  1  0.50000000  0.58328000  0.74055000  1
  Au  Au232  1  0.57848000  0.52785000  0.74055000  1
  Au  Au233  1  0.57848000  0.61112000  0.78847000  1
  Au  Au234  1  0.50000000  0.50000000  0.78894000  1
  Au  Au235  1  0.65696000  0.55570000  0.78847000  1
  Au  Au236  1  0.18608000  0.55516000  0.59678000  1
  Au  Au237  1  0.26456000  0.58301000  0.64471000  1
  Au  Au238  1  0.34304000  0.61085000  0.69263000  1
  Au  Au239  1  0.42152000  0.63870000  0.74055000  1
  Au  Au240  1  0.50000000  0.66655000  0.78847000  1
  Au  Au241  1  0.34304000  0.36103000  0.74149000  1
  Au  Au242  1  0.42152000  0.30560000  0.74149000  1
  Au  Au243  1  0.42152000  0.38888000  0.78941000  1
