data_3D\Atomistic
_audit_creation_date              2023-02-07
_audit_creation_method            'Materials Studio'
_symmetry_space_group_name_H-M    'P1'
_symmetry_Int_Tables_number       1
_symmetry_cell_setting            triclinic
loop_
_symmetry_equiv_pos_as_xyz
  x,y,z
_cell_length_a                    30.0000
_cell_length_b                    30.0000
_cell_length_c                    30.0000
_cell_angle_alpha                 90.0000
_cell_angle_beta                  90.0000
_cell_angle_gamma                 90.0000
loop_
_atom_site_label
_atom_site_type_symbol
_atom_site_fract_x
_atom_site_fract_y
_atom_site_fract_z
_atom_site_U_iso_or_equiv
_atom_site_adp_type
_atom_site_occupancy
Au1    Au    0.57848   0.44457   1.21106   0.00000  Uiso   1.00
Au2    Au    0.73544   0.50027   1.30690   0.00000  Uiso   1.00
Au3    Au    0.65696   0.47242   1.25898   0.00000  Uiso   1.00
Au4    Au    0.42152   0.55543   1.21106   0.00000  Uiso   1.00
Pt5    Pt    0.57848   0.61112   1.30690   0.00000  Uiso   1.00
Au6    Au    0.57848   0.52785   1.25898   0.00000  Uiso   1.00
Au7    Au    0.50000   0.58328   1.25898   0.00000  Uiso   1.00
Au8    Au    0.57848   0.61112   1.21059   0.00000  Uiso   1.00
Au9    Au    0.50000   0.50000   1.21106   0.00000  Uiso   1.00
Au10   Au    0.73544   0.66682   1.40275   0.00000  Uiso   1.00
Au11   Au    0.73544   0.58354   1.35483   0.00000  Uiso   1.00
Au12   Au    0.65696   0.63897   1.35483   0.00000  Uiso   1.00
Au13   Au    0.65696   0.63897   1.25851   0.00000  Uiso   1.00
Au14   Au    0.65696   0.55570   1.30690   0.00000  Uiso   1.00
Au15   Au    0.42152   0.72198   1.30690   0.00000  Uiso   1.00
Au16   Au    0.42152   0.63870   1.25898   0.00000  Uiso   1.00
Au17   Au    0.57848   0.77767   1.40275   0.00000  Uiso   1.00
Au18   Au    0.57848   0.69440   1.35483   0.00000  Uiso   1.00
Au19   Au    0.50000   0.74983   1.35483   0.00000  Uiso   1.00
Au20   Au    0.57848   0.69440   1.25851   0.00000  Uiso   1.00
Au21   Au    0.50000   0.66655   1.30690   0.00000  Uiso   1.00
Au22   Au    0.65696   0.72225   1.40275   0.00000  Uiso   1.00
Au23   Au    0.57848   0.27802   1.30784   0.00000  Uiso   1.00
Au24   Au    0.73544   0.33372   1.40369   0.00000  Uiso   1.00
Au25   Au    0.65696   0.30587   1.35576   0.00000  Uiso   1.00
Pt26   Pt    0.42152   0.38888   1.30784   0.00000  Uiso   1.00
Au27   Au    0.42152   0.30560   1.25992   0.00000  Uiso   1.00
Au28   Au    0.34304   0.36103   1.25992   0.00000  Uiso   1.00
Au29   Au    0.42152   0.38888   1.21153   0.00000  Uiso   1.00
Pt30   Pt    0.57848   0.44457   1.40369   0.00000  Uiso   1.00
Pt31   Pt    0.57848   0.36130   1.35576   0.00000  Uiso   1.00
Pt32   Pt    0.50000   0.41672   1.35576   0.00000  Uiso   1.00
Au33   Au    0.50000   0.33345   1.21153   0.00000  Uiso   1.00
Au34   Au    0.50000   0.41672   1.25945   0.00000  Uiso   1.00
Au35   Au    0.57848   0.36130   1.25945   0.00000  Uiso   1.00
Pt36   Pt    0.57848   0.44457   1.30737   0.00000  Uiso   1.00
Pt37   Pt    0.50000   0.33345   1.30784   0.00000  Uiso   1.00
Pt38   Pt    0.73544   0.50027   1.49953   0.00000  Uiso   1.00
Au39   Au    0.73544   0.41699   1.45161   0.00000  Uiso   1.00
Pt40   Pt    0.65696   0.47242   1.45161   0.00000  Uiso   1.00
Au41   Au    0.65696   0.38915   1.30737   0.00000  Uiso   1.00
Pt42   Pt    0.65696   0.47242   1.35529   0.00000  Uiso   1.00
Au43   Au    0.73544   0.41699   1.35529   0.00000  Uiso   1.00
Au44   Au    0.73544   0.50027   1.40322   0.00000  Uiso   1.00
Pt45   Pt    0.65696   0.38915   1.40369   0.00000  Uiso   1.00
Au46   Au    0.81392   0.52812   1.54745   0.00000  Uiso   1.00
Au47   Au    0.81392   0.44484   1.40322   0.00000  Uiso   1.00
Au48   Au    0.81392   0.52812   1.45114   0.00000  Uiso   1.00
Au49   Au    0.81392   0.44484   1.49953   0.00000  Uiso   1.00
Au50   Au    0.26456   0.49973   1.30784   0.00000  Uiso   1.00
Pt51   Pt    0.42152   0.55543   1.40369   0.00000  Uiso   1.00
Pt52   Pt    0.42152   0.47215   1.35576   0.00000  Uiso   1.00
Pt53   Pt    0.34304   0.52758   1.35576   0.00000  Uiso   1.00
Au54   Au    0.34304   0.44430   1.21153   0.00000  Uiso   1.00
Au55   Au    0.34304   0.52758   1.25945   0.00000  Uiso   1.00
Au56   Au    0.42152   0.47215   1.25945   0.00000  Uiso   1.00
Pt57   Pt    0.42152   0.55543   1.30737   0.00000  Uiso   1.00
Au58   Au    0.34304   0.44430   1.30784   0.00000  Uiso   1.00
Pt59   Pt    0.57848   0.61112   1.49953   0.00000  Uiso   1.00
Pt60   Pt    0.57848   0.52785   1.45161   0.00000  Uiso   1.00
Pt61   Pt    0.50000   0.58328   1.45161   0.00000  Uiso   1.00
Pt62   Pt    0.50000   0.50000   1.30737   0.00000  Uiso   1.00
Pt63   Pt    0.50000   0.58328   1.35529   0.00000  Uiso   1.00
Pt64   Pt    0.57848   0.52785   1.35529   0.00000  Uiso   1.00
Pt65   Pt    0.57848   0.61112   1.40322   0.00000  Uiso   1.00
Pt66   Pt    0.50000   0.50000   1.40369   0.00000  Uiso   1.00
Au67   Au    0.73544   0.66682   1.59538   0.00000  Uiso   1.00
Au68   Au    0.73544   0.58354   1.54745   0.00000  Uiso   1.00
Pt69   Pt    0.65696   0.63897   1.54745   0.00000  Uiso   1.00
Pt70   Pt    0.65696   0.55570   1.40322   0.00000  Uiso   1.00
Pt71   Pt    0.65696   0.63897   1.45114   0.00000  Uiso   1.00
Au72   Au    0.73544   0.58354   1.45114   0.00000  Uiso   1.00
Au73   Au    0.73544   0.66682   1.49906   0.00000  Uiso   1.00
Pt74   Pt    0.65696   0.55570   1.49953   0.00000  Uiso   1.00
Au75   Au    0.81392   0.61139   1.49906   0.00000  Uiso   1.00
Au76   Au    0.26456   0.66628   1.40369   0.00000  Uiso   1.00
Au77   Au    0.26456   0.58301   1.35576   0.00000  Uiso   1.00
Pt78   Pt    0.42152   0.72198   1.49953   0.00000  Uiso   1.00
Pt79   Pt    0.42152   0.63870   1.45161   0.00000  Uiso   1.00
Au80   Au    0.34304   0.69413   1.45161   0.00000  Uiso   1.00
Au81   Au    0.34304   0.61085   1.30737   0.00000  Uiso   1.00
Au82   Au    0.34304   0.69413   1.35529   0.00000  Uiso   1.00
Pt83   Pt    0.42152   0.63870   1.35529   0.00000  Uiso   1.00
Pt84   Pt    0.42152   0.72198   1.40322   0.00000  Uiso   1.00
Pt85   Pt    0.34304   0.61085   1.40369   0.00000  Uiso   1.00
Au86   Au    0.57848   0.77767   1.59538   0.00000  Uiso   1.00
Pt87   Pt    0.57848   0.69440   1.54745   0.00000  Uiso   1.00
Au88   Au    0.50000   0.74983   1.54745   0.00000  Uiso   1.00
Pt89   Pt    0.50000   0.66655   1.40322   0.00000  Uiso   1.00
Au90   Au    0.50000   0.74983   1.45114   0.00000  Uiso   1.00
Pt91   Pt    0.57848   0.69440   1.45114   0.00000  Uiso   1.00
Au92   Au    0.57848   0.77767   1.49906   0.00000  Uiso   1.00
Pt93   Pt    0.50000   0.66655   1.49953   0.00000  Uiso   1.00
Au94   Au    0.65696   0.72225   1.49906   0.00000  Uiso   1.00
Au95   Au    0.65696   0.72225   1.59538   0.00000  Uiso   1.00
Au96   Au    0.42152   0.80525   1.54745   0.00000  Uiso   1.00
Au97   Au    0.34304   0.77740   1.40322   0.00000  Uiso   1.00
Au98   Au    0.42152   0.80525   1.45114   0.00000  Uiso   1.00
Au99   Au    0.34304   0.77740   1.49953   0.00000  Uiso   1.00
Au100  Au    0.50000   0.83310   1.49906   0.00000  Uiso   1.00
Au101  Au    0.42152   0.22233   1.40462   0.00000  Uiso   1.00
Pt102  Pt    0.57848   0.27802   1.50047   0.00000  Uiso   1.00
Au103  Au    0.57848   0.19475   1.45255   0.00000  Uiso   1.00
Au104  Au    0.50000   0.25017   1.45255   0.00000  Uiso   1.00
Au105  Au    0.50000   0.25017   1.35623   0.00000  Uiso   1.00
Pt106  Pt    0.57848   0.27802   1.40415   0.00000  Uiso   1.00
Au107  Au    0.73544   0.33372   1.59631   0.00000  Uiso   1.00
Au108  Au    0.65696   0.30587   1.54839   0.00000  Uiso   1.00
Au109  Au    0.65696   0.22260   1.40415   0.00000  Uiso   1.00
Au110  Au    0.65696   0.30587   1.45208   0.00000  Uiso   1.00
Au111  Au    0.73544   0.33372   1.50000   0.00000  Uiso   1.00
Au112  Au    0.65696   0.22260   1.50047   0.00000  Uiso   1.00
Au113  Au    0.26456   0.33318   1.40462   0.00000  Uiso   1.00
Pt114  Pt    0.42152   0.38888   1.50047   0.00000  Uiso   1.00
Pt115  Pt    0.42152   0.30560   1.45255   0.00000  Uiso   1.00
Pt116  Pt    0.34304   0.36103   1.45255   0.00000  Uiso   1.00
Au117  Au    0.34304   0.27775   1.30831   0.00000  Uiso   1.00
Au118  Au    0.34304   0.36103   1.35623   0.00000  Uiso   1.00
Au119  Au    0.42152   0.30560   1.35623   0.00000  Uiso   1.00
Pt120  Pt    0.42152   0.38888   1.40415   0.00000  Uiso   1.00
Au121  Au    0.34304   0.27775   1.40462   0.00000  Uiso   1.00
Pt122  Pt    0.57848   0.44457   1.59631   0.00000  Uiso   1.00
Pt123  Pt    0.57848   0.36130   1.54839   0.00000  Uiso   1.00
Pt124  Pt    0.50000   0.41672   1.54839   0.00000  Uiso   1.00
Pt125  Pt    0.50000   0.33345   1.40415   0.00000  Uiso   1.00
Pt126  Pt    0.50000   0.41672   1.45208   0.00000  Uiso   1.00
Pt127  Pt    0.57848   0.36130   1.45208   0.00000  Uiso   1.00
Pt128  Pt    0.57848   0.44457   1.50000   0.00000  Uiso   1.00
Pt129  Pt    0.50000   0.33345   1.50047   0.00000  Uiso   1.00
Au130  Au    0.73544   0.50027   1.69216   0.00000  Uiso   1.00
Au131  Au    0.73544   0.41699   1.64424   0.00000  Uiso   1.00
Pt132  Pt    0.65696   0.47242   1.64424   0.00000  Uiso   1.00
Pt133  Pt    0.65696   0.38915   1.50000   0.00000  Uiso   1.00
Pt134  Pt    0.65696   0.47242   1.54792   0.00000  Uiso   1.00
Au135  Au    0.73544   0.41699   1.54792   0.00000  Uiso   1.00
Pt136  Pt    0.73544   0.50027   1.59585   0.00000  Uiso   1.00
Pt137  Pt    0.65696   0.38915   1.59631   0.00000  Uiso   1.00
Au138  Au    0.81392   0.44484   1.59585   0.00000  Uiso   1.00
Pt139  Pt    0.26456   0.49973   1.50047   0.00000  Uiso   1.00
Au140  Au    0.26456   0.41646   1.45255   0.00000  Uiso   1.00
Au141  Au    0.18608   0.47188   1.45255   0.00000  Uiso   1.00
Au142  Au    0.26456   0.41646   1.35623   0.00000  Uiso   1.00
Au143  Au    0.26456   0.49973   1.40415   0.00000  Uiso   1.00
Pt144  Pt    0.42152   0.55543   1.59631   0.00000  Uiso   1.00
Pt145  Pt    0.42152   0.47215   1.54839   0.00000  Uiso   1.00
Pt146  Pt    0.34304   0.52758   1.54839   0.00000  Uiso   1.00
Pt147  Pt    0.34304   0.44430   1.40415   0.00000  Uiso   1.00
Pt148  Pt    0.34304   0.52758   1.45208   0.00000  Uiso   1.00
Pt149  Pt    0.42152   0.47215   1.45208   0.00000  Uiso   1.00
Pt150  Pt    0.42152   0.55543   1.50000   0.00000  Uiso   1.00
Pt151  Pt    0.34304   0.44430   1.50047   0.00000  Uiso   1.00
Pt152  Pt    0.57848   0.61112   1.69216   0.00000  Uiso   1.00
Pt153  Pt    0.57848   0.52785   1.64424   0.00000  Uiso   1.00
Pt154  Pt    0.50000   0.58328   1.64424   0.00000  Uiso   1.00
Pt155  Pt    0.50000   0.50000   1.50000   0.00000  Uiso   1.00
Pt156  Pt    0.50000   0.58328   1.54792   0.00000  Uiso   1.00
Pt157  Pt    0.57848   0.52785   1.54792   0.00000  Uiso   1.00
Pt158  Pt    0.57848   0.61112   1.59585   0.00000  Uiso   1.00
Pt159  Pt    0.50000   0.50000   1.59631   0.00000  Uiso   1.00
Au160  Au    0.65696   0.63897   1.74008   0.00000  Uiso   1.00
Pt161  Pt    0.65696   0.55570   1.59585   0.00000  Uiso   1.00
Au162  Au    0.65696   0.63897   1.64377   0.00000  Uiso   1.00
Au163  Au    0.73544   0.58354   1.64377   0.00000  Uiso   1.00
Au164  Au    0.65696   0.55570   1.69216   0.00000  Uiso   1.00
Au165  Au    0.26456   0.66628   1.59631   0.00000  Uiso   1.00
Au166  Au    0.26456   0.58301   1.54839   0.00000  Uiso   1.00
Au167  Au    0.18608   0.55516   1.40415   0.00000  Uiso   1.00
Au168  Au    0.26456   0.58301   1.45208   0.00000  Uiso   1.00
Au169  Au    0.26456   0.66628   1.50000   0.00000  Uiso   1.00
Au170  Au    0.18608   0.55516   1.50047   0.00000  Uiso   1.00
Au171  Au    0.42152   0.72198   1.69216   0.00000  Uiso   1.00
Pt172  Pt    0.42152   0.63870   1.64424   0.00000  Uiso   1.00
Au173  Au    0.34304   0.69413   1.64424   0.00000  Uiso   1.00
Pt174  Pt    0.34304   0.61085   1.50000   0.00000  Uiso   1.00
Au175  Au    0.34304   0.69413   1.54792   0.00000  Uiso   1.00
Pt176  Pt    0.42152   0.63870   1.54792   0.00000  Uiso   1.00
Pt177  Pt    0.42152   0.72198   1.59585   0.00000  Uiso   1.00
Pt178  Pt    0.34304   0.61085   1.59631   0.00000  Uiso   1.00
Au179  Au    0.57848   0.69440   1.74008   0.00000  Uiso   1.00
Pt180  Pt    0.50000   0.66655   1.59585   0.00000  Uiso   1.00
Au181  Au    0.50000   0.74983   1.64377   0.00000  Uiso   1.00
Au182  Au    0.57848   0.69440   1.64377   0.00000  Uiso   1.00
Au183  Au    0.50000   0.66655   1.69216   0.00000  Uiso   1.00
Au184  Au    0.65696   0.72225   1.69169   0.00000  Uiso   1.00
Au185  Au    0.34304   0.77740   1.59585   0.00000  Uiso   1.00
Au186  Au    0.42152   0.22233   1.59725   0.00000  Uiso   1.00
Au187  Au    0.42152   0.22233   1.50094   0.00000  Uiso   1.00
Au188  Au    0.57848   0.27802   1.69310   0.00000  Uiso   1.00
Au189  Au    0.50000   0.25017   1.64517   0.00000  Uiso   1.00
Au190  Au    0.50000   0.16690   1.50094   0.00000  Uiso   1.00
Au191  Au    0.50000   0.25017   1.54886   0.00000  Uiso   1.00
Au192  Au    0.57848   0.19475   1.54886   0.00000  Uiso   1.00
Pt193  Pt    0.57848   0.27802   1.59678   0.00000  Uiso   1.00
Au194  Au    0.65696   0.22260   1.59678   0.00000  Uiso   1.00
Au195  Au    0.65696   0.30587   1.64471   0.00000  Uiso   1.00
Au196  Au    0.26456   0.33318   1.59725   0.00000  Uiso   1.00
Au197  Au    0.26456   0.33318   1.50094   0.00000  Uiso   1.00
Pt198  Pt    0.42152   0.38888   1.69310   0.00000  Uiso   1.00
Au199  Au    0.42152   0.30560   1.64517   0.00000  Uiso   1.00
Au200  Au    0.34304   0.36103   1.64517   0.00000  Uiso   1.00
Au201  Au    0.34304   0.27775   1.50094   0.00000  Uiso   1.00
Pt202  Pt    0.34304   0.36103   1.54886   0.00000  Uiso   1.00
Pt203  Pt    0.42152   0.30560   1.54886   0.00000  Uiso   1.00
Pt204  Pt    0.42152   0.38888   1.59678   0.00000  Uiso   1.00
Au205  Au    0.34304   0.27775   1.59725   0.00000  Uiso   1.00
Au206  Au    0.57848   0.44457   1.78894   0.00000  Uiso   1.00
Au207  Au    0.57848   0.36130   1.74102   0.00000  Uiso   1.00
Au208  Au    0.50000   0.41672   1.74102   0.00000  Uiso   1.00
Pt209  Pt    0.50000   0.33345   1.59678   0.00000  Uiso   1.00
Pt210  Pt    0.50000   0.41672   1.64471   0.00000  Uiso   1.00
Pt211  Pt    0.57848   0.36130   1.64471   0.00000  Uiso   1.00
Pt212  Pt    0.57848   0.44457   1.69263   0.00000  Uiso   1.00
Au213  Au    0.50000   0.33345   1.69310   0.00000  Uiso   1.00
Au214  Au    0.65696   0.38915   1.69263   0.00000  Uiso   1.00
Au215  Au    0.65696   0.47242   1.74055   0.00000  Uiso   1.00
Au216  Au    0.26456   0.49973   1.69310   0.00000  Uiso   1.00
Au217  Au    0.26456   0.41646   1.64517   0.00000  Uiso   1.00
Au218  Au    0.18608   0.38861   1.50094   0.00000  Uiso   1.00
Au219  Au    0.18608   0.47188   1.54886   0.00000  Uiso   1.00
Au220  Au    0.26456   0.41646   1.54886   0.00000  Uiso   1.00
Pt221  Pt    0.26456   0.49973   1.59678   0.00000  Uiso   1.00
Au222  Au    0.42152   0.55543   1.78894   0.00000  Uiso   1.00
Au223  Au    0.42152   0.47215   1.74102   0.00000  Uiso   1.00
Au224  Au    0.34304   0.52758   1.74102   0.00000  Uiso   1.00
Pt225  Pt    0.34304   0.44430   1.59678   0.00000  Uiso   1.00
Pt226  Pt    0.34304   0.52758   1.64471   0.00000  Uiso   1.00
Pt227  Pt    0.42152   0.47215   1.64471   0.00000  Uiso   1.00
Pt228  Pt    0.42152   0.55543   1.69263   0.00000  Uiso   1.00
Au229  Au    0.34304   0.44430   1.69310   0.00000  Uiso   1.00
Pt230  Pt    0.50000   0.50000   1.69263   0.00000  Uiso   1.00
Au231  Au    0.50000   0.58328   1.74055   0.00000  Uiso   1.00
Au232  Au    0.57848   0.52785   1.74055   0.00000  Uiso   1.00
Au233  Au    0.57848   0.61112   1.78847   0.00000  Uiso   1.00
Au234  Au    0.50000   0.50000   1.78894   0.00000  Uiso   1.00
Au235  Au    0.65696   0.55570   1.78847   0.00000  Uiso   1.00
Au236  Au    0.18608   0.55516   1.59678   0.00000  Uiso   1.00
Au237  Au    0.26456   0.58301   1.64471   0.00000  Uiso   1.00
Au238  Au    0.34304   0.61085   1.69263   0.00000  Uiso   1.00
Au239  Au    0.42152   0.63870   1.74055   0.00000  Uiso   1.00
Au240  Au    0.50000   0.66655   1.78847   0.00000  Uiso   1.00
Au241  Au    0.34304   0.36103   1.74149   0.00000  Uiso   1.00
Au242  Au    0.42152   0.30560   1.74149   0.00000  Uiso   1.00
Au243  Au    0.42152   0.38888   1.78941   0.00000  Uiso   1.00
