# generated using pymatgen
data_Co74Pt247
_symmetry_space_group_name_H-M   'P 1'
_cell_length_a   30.00000000
_cell_length_b   30.00000000
_cell_length_c   30.00000000
_cell_angle_alpha   90.00000000
_cell_angle_beta   90.00000000
_cell_angle_gamma   90.00000000
_symmetry_Int_Tables_number   1
_chemical_formula_structural   Co74Pt247
_chemical_formula_sum   'Co74 Pt247'
_cell_volume   27000.00000000
_cell_formula_units_Z   1
loop_
 _symmetry_equiv_pos_site_id
 _symmetry_equiv_pos_as_xyz
  1  'x, y, z'
loop_
 _atom_site_type_symbol
 _atom_site_label
 _atom_site_symmetry_multiplicity
 _atom_site_fract_x
 _atom_site_fract_y
 _atom_site_fract_z
 _atom_site_occupancy
  Co  Co0  1  0.50000001  0.49999999  0.37263929  1
  Co  Co1  1  0.50000001  0.49999999  0.62736072  1
  Co  Co2  1  0.56457738  0.43542262  0.37263929  1
  Co  Co3  1  0.56457738  0.56457739  0.37263929  1
  Co  Co4  1  0.43542261  0.43542262  0.37263929  1
  Co  Co5  1  0.56457738  0.43542262  0.62736072  1
  Co  Co6  1  0.43542261  0.56457739  0.37263929  1
  Co  Co7  1  0.56457738  0.56457739  0.62736072  1
  Co  Co8  1  0.43542261  0.43542262  0.62736072  1
  Co  Co9  1  0.43542261  0.56457739  0.62736072  1
  Co  Co10  1  0.62915478  0.49999999  0.37263929  1
  Co  Co11  1  0.50000001  0.62915476  0.37263929  1
  Co  Co12  1  0.50000001  0.37084522  0.37263929  1
  Co  Co13  1  0.37084524  0.49999999  0.37263929  1
  Co  Co14  1  0.62915478  0.49999999  0.62736072  1
  Co  Co15  1  0.50000001  0.37084522  0.62736072  1
  Co  Co16  1  0.37084524  0.49999999  0.62736072  1
  Co  Co17  1  0.50000001  0.62915476  0.62736072  1
  Co  Co18  1  0.62915478  0.62915476  0.37263929  1
  Co  Co19  1  0.62915478  0.37084522  0.37263929  1
  Co  Co20  1  0.37084524  0.37084522  0.37263929  1
  Co  Co21  1  0.37084524  0.62915476  0.37263929  1
  Co  Co22  1  0.62915478  0.37084522  0.62736072  1
  Co  Co23  1  0.62915478  0.62915476  0.62736072  1
  Co  Co24  1  0.37084524  0.37084522  0.62736072  1
  Co  Co25  1  0.37084524  0.62915476  0.62736072  1
  Co  Co26  1  0.69373214  0.43542262  0.37263929  1
  Co  Co27  1  0.56457738  0.30626786  0.37263929  1
  Co  Co28  1  0.69373214  0.56457739  0.37263929  1
  Co  Co29  1  0.43542261  0.30626786  0.37263929  1
  Co  Co30  1  0.56457738  0.30626786  0.62736072  1
  Co  Co31  1  0.69373214  0.43542262  0.62736072  1
  Co  Co32  1  0.43542261  0.30626786  0.62736072  1
  Co  Co33  1  0.69373214  0.56457739  0.62736072  1
  Co  Co34  1  0.56457738  0.69373216  0.37263929  1
  Co  Co35  1  0.30626784  0.43542262  0.37263929  1
  Co  Co36  1  0.30626784  0.56457739  0.37263929  1
  Co  Co37  1  0.43542261  0.69373216  0.37263929  1
  Co  Co38  1  0.56457738  0.69373216  0.62736072  1
  Co  Co39  1  0.30626784  0.43542262  0.62736072  1
  Co  Co40  1  0.30626784  0.56457739  0.62736072  1
  Co  Co41  1  0.43542261  0.69373216  0.62736072  1
  Co  Co42  1  0.75830954  0.49999999  0.37263929  1
  Co  Co43  1  0.50000001  0.24169046  0.37263929  1
  Co  Co44  1  0.50000001  0.75830952  0.37263929  1
  Co  Co45  1  0.24169048  0.49999999  0.37263929  1
  Co  Co46  1  0.50000001  0.24169046  0.62736072  1
  Co  Co47  1  0.75830954  0.49999999  0.62736072  1
  Co  Co48  1  0.50000001  0.75830952  0.62736072  1
  Co  Co49  1  0.24169048  0.49999999  0.62736072  1
  Co  Co50  1  0.69373214  0.30626786  0.37263929  1
  Co  Co51  1  0.69373214  0.30626786  0.62736072  1
  Co  Co52  1  0.69373214  0.69373216  0.37263929  1
  Co  Co53  1  0.30626784  0.30626786  0.37263929  1
  Co  Co54  1  0.30626784  0.30626786  0.62736072  1
  Co  Co55  1  0.69373214  0.69373216  0.62736072  1
  Co  Co56  1  0.30626784  0.69373216  0.37263929  1
  Co  Co57  1  0.30626784  0.69373216  0.62736072  1
  Co  Co58  1  0.62915478  0.75830952  0.37263929  1
  Co  Co59  1  0.62915478  0.24169046  0.37263929  1
  Co  Co60  1  0.75830954  0.62915476  0.37263929  1
  Co  Co61  1  0.37084524  0.75830952  0.37263929  1
  Co  Co62  1  0.75830954  0.37084522  0.37263929  1
  Co  Co63  1  0.37084524  0.24169046  0.37263929  1
  Co  Co64  1  0.24169048  0.62915476  0.37263929  1
  Co  Co65  1  0.24169048  0.37084522  0.37263929  1
  Co  Co66  1  0.37084524  0.24169046  0.62736072  1
  Co  Co67  1  0.62915478  0.24169046  0.62736072  1
  Co  Co68  1  0.62915478  0.75830952  0.62736072  1
  Co  Co69  1  0.37084524  0.75830952  0.62736072  1
  Co  Co70  1  0.75830954  0.37084522  0.62736072  1
  Co  Co71  1  0.24169048  0.37084522  0.62736072  1
  Co  Co72  1  0.75830954  0.62915476  0.62736072  1
  Co  Co73  1  0.24169048  0.62915476  0.62736072  1
  Pt  Pt74  1  0.50000001  0.49999999  0.49999999  1
  Pt  Pt75  1  0.56457738  0.43542262  0.49999999  1
  Pt  Pt76  1  0.56457738  0.56457739  0.49999999  1
  Pt  Pt77  1  0.43542261  0.43542262  0.49999999  1
  Pt  Pt78  1  0.43542261  0.56457739  0.49999999  1
  Pt  Pt79  1  0.56457738  0.49999999  0.43076316  1
  Pt  Pt80  1  0.50000001  0.43542262  0.43076316  1
  Pt  Pt81  1  0.50000001  0.56457739  0.43076316  1
  Pt  Pt82  1  0.43542261  0.49999999  0.43076316  1
  Pt  Pt83  1  0.56457738  0.49999999  0.56923686  1
  Pt  Pt84  1  0.50000001  0.43542262  0.56923686  1
  Pt  Pt85  1  0.43542261  0.49999999  0.56923686  1
  Pt  Pt86  1  0.50000001  0.56457739  0.56923686  1
  Pt  Pt87  1  0.62915478  0.49999999  0.49999999  1
  Pt  Pt88  1  0.50000001  0.37084522  0.49999999  1
  Pt  Pt89  1  0.37084524  0.49999999  0.49999999  1
  Pt  Pt90  1  0.50000001  0.62915476  0.49999999  1
  Pt  Pt91  1  0.62915478  0.43542262  0.43076316  1
  Pt  Pt92  1  0.56457738  0.37084522  0.43076316  1
  Pt  Pt93  1  0.56457738  0.62915476  0.43076316  1
  Pt  Pt94  1  0.37084524  0.43542262  0.43076316  1
  Pt  Pt95  1  0.62915478  0.56457739  0.43076316  1
  Pt  Pt96  1  0.43542261  0.37084522  0.43076316  1
  Pt  Pt97  1  0.37084524  0.56457739  0.43076316  1
  Pt  Pt98  1  0.43542261  0.62915476  0.43076316  1
  Pt  Pt99  1  0.56457738  0.37084522  0.56923686  1
  Pt  Pt100  1  0.62915478  0.43542262  0.56923686  1
  Pt  Pt101  1  0.56457738  0.62915476  0.56923686  1
  Pt  Pt102  1  0.37084524  0.43542262  0.56923686  1
  Pt  Pt103  1  0.62915478  0.56457739  0.56923686  1
  Pt  Pt104  1  0.43542261  0.37084522  0.56923686  1
  Pt  Pt105  1  0.43542261  0.62915476  0.56923686  1
  Pt  Pt106  1  0.37084524  0.56457739  0.56923686  1
  Pt  Pt107  1  0.62915478  0.37084522  0.49999999  1
  Pt  Pt108  1  0.62915478  0.62915476  0.49999999  1
  Pt  Pt109  1  0.37084524  0.37084522  0.49999999  1
  Pt  Pt110  1  0.37084524  0.62915476  0.49999999  1
  Pt  Pt111  1  0.56457738  0.49999999  0.31451542  1
  Pt  Pt112  1  0.50000001  0.43542262  0.31451542  1
  Pt  Pt113  1  0.43542261  0.49999999  0.31451542  1
  Pt  Pt114  1  0.50000001  0.56457739  0.31451542  1
  Pt  Pt115  1  0.56457738  0.49999999  0.68548459  1
  Pt  Pt116  1  0.50000001  0.43542262  0.68548459  1
  Pt  Pt117  1  0.50000001  0.56457739  0.68548459  1
  Pt  Pt118  1  0.43542261  0.49999999  0.68548459  1
  Pt  Pt119  1  0.56457738  0.30626786  0.49999999  1
  Pt  Pt120  1  0.69373214  0.43542262  0.49999999  1
  Pt  Pt121  1  0.69373214  0.56457739  0.49999999  1
  Pt  Pt122  1  0.43542261  0.30626786  0.49999999  1
  Pt  Pt123  1  0.56457738  0.69373216  0.49999999  1
  Pt  Pt124  1  0.30626784  0.43542262  0.49999999  1
  Pt  Pt125  1  0.30626784  0.56457739  0.49999999  1
  Pt  Pt126  1  0.43542261  0.69373216  0.49999999  1
  Pt  Pt127  1  0.50000001  0.30626786  0.43076316  1
  Pt  Pt128  1  0.69373214  0.49999999  0.43076316  1
  Pt  Pt129  1  0.69373214  0.49999999  0.56923686  1
  Pt  Pt130  1  0.50000001  0.30626786  0.56923686  1
  Pt  Pt131  1  0.30626784  0.49999999  0.43076316  1
  Pt  Pt132  1  0.50000001  0.69373216  0.43076316  1
  Pt  Pt133  1  0.30626784  0.49999999  0.56923686  1
  Pt  Pt134  1  0.50000001  0.69373216  0.56923686  1
  Pt  Pt135  1  0.56457738  0.37084522  0.31451542  1
  Pt  Pt136  1  0.62915478  0.43542262  0.31451542  1
  Pt  Pt137  1  0.56457738  0.62915476  0.31451542  1
  Pt  Pt138  1  0.37084524  0.43542262  0.31451542  1
  Pt  Pt139  1  0.62915478  0.56457739  0.31451542  1
  Pt  Pt140  1  0.37084524  0.56457739  0.31451542  1
  Pt  Pt141  1  0.43542261  0.37084522  0.31451542  1
  Pt  Pt142  1  0.43542261  0.62915476  0.31451542  1
  Pt  Pt143  1  0.62915478  0.43542262  0.68548459  1
  Pt  Pt144  1  0.56457738  0.37084522  0.68548459  1
  Pt  Pt145  1  0.56457738  0.62915476  0.68548459  1
  Pt  Pt146  1  0.37084524  0.43542262  0.68548459  1
  Pt  Pt147  1  0.62915478  0.56457739  0.68548459  1
  Pt  Pt148  1  0.43542261  0.37084522  0.68548459  1
  Pt  Pt149  1  0.37084524  0.56457739  0.68548459  1
  Pt  Pt150  1  0.43542261  0.62915476  0.68548459  1
  Pt  Pt151  1  0.62915478  0.30626786  0.43076316  1
  Pt  Pt152  1  0.37084524  0.30626786  0.43076316  1
  Pt  Pt153  1  0.69373214  0.37084522  0.43076316  1
  Pt  Pt154  1  0.69373214  0.62915476  0.43076316  1
  Pt  Pt155  1  0.62915478  0.30626786  0.56923686  1
  Pt  Pt156  1  0.69373214  0.37084522  0.56923686  1
  Pt  Pt157  1  0.69373214  0.62915476  0.56923686  1
  Pt  Pt158  1  0.37084524  0.30626786  0.56923686  1
  Pt  Pt159  1  0.62915478  0.69373216  0.43076316  1
  Pt  Pt160  1  0.30626784  0.37084522  0.43076316  1
  Pt  Pt161  1  0.30626784  0.62915476  0.43076316  1
  Pt  Pt162  1  0.37084524  0.69373216  0.43076316  1
  Pt  Pt163  1  0.62915478  0.69373216  0.56923686  1
  Pt  Pt164  1  0.30626784  0.37084522  0.56923686  1
  Pt  Pt165  1  0.30626784  0.62915476  0.56923686  1
  Pt  Pt166  1  0.37084524  0.69373216  0.56923686  1
  Pt  Pt167  1  0.50000001  0.49999999  0.75472142  1
  Pt  Pt168  1  0.50000001  0.49999999  0.24527856  1
  Pt  Pt169  1  0.50000001  0.24169046  0.49999999  1
  Pt  Pt170  1  0.75830954  0.49999999  0.49999999  1
  Pt  Pt171  1  0.50000001  0.75830952  0.49999999  1
  Pt  Pt172  1  0.24169048  0.49999999  0.49999999  1
  Pt  Pt173  1  0.50000001  0.30626786  0.31451542  1
  Pt  Pt174  1  0.69373214  0.49999999  0.31451542  1
  Pt  Pt175  1  0.69373214  0.49999999  0.68548459  1
  Pt  Pt176  1  0.50000001  0.30626786  0.68548459  1
  Pt  Pt177  1  0.30626784  0.49999999  0.31451542  1
  Pt  Pt178  1  0.50000001  0.69373216  0.31451542  1
  Pt  Pt179  1  0.30626784  0.49999999  0.68548459  1
  Pt  Pt180  1  0.50000001  0.69373216  0.68548459  1
  Pt  Pt181  1  0.56457738  0.43542262  0.75472142  1
  Pt  Pt182  1  0.56457738  0.43542262  0.24527856  1
  Pt  Pt183  1  0.56457738  0.56457739  0.75472142  1
  Pt  Pt184  1  0.56457738  0.56457739  0.24527856  1
  Pt  Pt185  1  0.43542261  0.43542262  0.75472142  1
  Pt  Pt186  1  0.43542261  0.43542262  0.24527856  1
  Pt  Pt187  1  0.43542261  0.56457739  0.24527856  1
  Pt  Pt188  1  0.43542261  0.56457739  0.75472142  1
  Pt  Pt189  1  0.69373214  0.30626786  0.49999999  1
  Pt  Pt190  1  0.30626784  0.30626786  0.49999999  1
  Pt  Pt191  1  0.69373214  0.69373216  0.49999999  1
  Pt  Pt192  1  0.30626784  0.69373216  0.49999999  1
  Pt  Pt193  1  0.56457738  0.24169046  0.43076316  1
  Pt  Pt194  1  0.56457738  0.75830952  0.43076316  1
  Pt  Pt195  1  0.75830954  0.43542262  0.43076316  1
  Pt  Pt196  1  0.24169048  0.43542262  0.43076316  1
  Pt  Pt197  1  0.43542261  0.24169046  0.43076316  1
  Pt  Pt198  1  0.75830954  0.56457739  0.43076316  1
  Pt  Pt199  1  0.24169048  0.56457739  0.43076316  1
  Pt  Pt200  1  0.43542261  0.75830952  0.43076316  1
  Pt  Pt201  1  0.56457738  0.24169046  0.56923686  1
  Pt  Pt202  1  0.56457738  0.75830952  0.56923686  1
  Pt  Pt203  1  0.75830954  0.43542262  0.56923686  1
  Pt  Pt204  1  0.24169048  0.43542262  0.56923686  1
  Pt  Pt205  1  0.43542261  0.24169046  0.56923686  1
  Pt  Pt206  1  0.43542261  0.75830952  0.56923686  1
  Pt  Pt207  1  0.75830954  0.56457739  0.56923686  1
  Pt  Pt208  1  0.24169048  0.56457739  0.56923686  1
  Pt  Pt209  1  0.62915478  0.49999999  0.24527856  1
  Pt  Pt210  1  0.62915478  0.49999999  0.75472142  1
  Pt  Pt211  1  0.50000001  0.37084522  0.75472142  1
  Pt  Pt212  1  0.50000001  0.37084522  0.24527856  1
  Pt  Pt213  1  0.50000001  0.62915476  0.24527856  1
  Pt  Pt214  1  0.37084524  0.49999999  0.75472142  1
  Pt  Pt215  1  0.37084524  0.49999999  0.24527856  1
  Pt  Pt216  1  0.50000001  0.62915476  0.75472142  1
  Pt  Pt217  1  0.62915478  0.24169046  0.49999999  1
  Pt  Pt218  1  0.37084524  0.24169046  0.49999999  1
  Pt  Pt219  1  0.62915478  0.75830952  0.49999999  1
  Pt  Pt220  1  0.75830954  0.62915476  0.49999999  1
  Pt  Pt221  1  0.37084524  0.75830952  0.49999999  1
  Pt  Pt222  1  0.75830954  0.37084522  0.49999999  1
  Pt  Pt223  1  0.24169048  0.62915476  0.49999999  1
  Pt  Pt224  1  0.24169048  0.37084522  0.49999999  1
  Pt  Pt225  1  0.62915478  0.30626786  0.31451542  1
  Pt  Pt226  1  0.69373214  0.37084522  0.31451542  1
  Pt  Pt227  1  0.37084524  0.30626786  0.31451542  1
  Pt  Pt228  1  0.69373214  0.62915476  0.31451542  1
  Pt  Pt229  1  0.62915478  0.30626786  0.68548459  1
  Pt  Pt230  1  0.37084524  0.30626786  0.68548459  1
  Pt  Pt231  1  0.69373214  0.37084522  0.68548459  1
  Pt  Pt232  1  0.69373214  0.62915476  0.68548459  1
  Pt  Pt233  1  0.62915478  0.69373216  0.31451542  1
  Pt  Pt234  1  0.30626784  0.37084522  0.31451542  1
  Pt  Pt235  1  0.30626784  0.62915476  0.31451542  1
  Pt  Pt236  1  0.37084524  0.69373216  0.31451542  1
  Pt  Pt237  1  0.62915478  0.69373216  0.68548459  1
  Pt  Pt238  1  0.30626784  0.37084522  0.68548459  1
  Pt  Pt239  1  0.30626784  0.62915476  0.68548459  1
  Pt  Pt240  1  0.37084524  0.69373216  0.68548459  1
  Pt  Pt241  1  0.62915478  0.37084522  0.75472142  1
  Pt  Pt242  1  0.62915478  0.37084522  0.24527856  1
  Pt  Pt243  1  0.62915478  0.62915476  0.75472142  1
  Pt  Pt244  1  0.62915478  0.62915476  0.24527856  1
  Pt  Pt245  1  0.37084524  0.37084522  0.24527856  1
  Pt  Pt246  1  0.37084524  0.62915476  0.24527856  1
  Pt  Pt247  1  0.37084524  0.37084522  0.75472142  1
  Pt  Pt248  1  0.37084524  0.62915476  0.75472142  1
  Pt  Pt249  1  0.56457738  0.24169046  0.31451542  1
  Pt  Pt250  1  0.75830954  0.43542262  0.31451542  1
  Pt  Pt251  1  0.56457738  0.75830952  0.31451542  1
  Pt  Pt252  1  0.24169048  0.43542262  0.31451542  1
  Pt  Pt253  1  0.43542261  0.24169046  0.31451542  1
  Pt  Pt254  1  0.24169048  0.56457739  0.31451542  1
  Pt  Pt255  1  0.75830954  0.56457739  0.31451542  1
  Pt  Pt256  1  0.43542261  0.75830952  0.31451542  1
  Pt  Pt257  1  0.56457738  0.24169046  0.68548459  1
  Pt  Pt258  1  0.56457738  0.75830952  0.68548459  1
  Pt  Pt259  1  0.75830954  0.43542262  0.68548459  1
  Pt  Pt260  1  0.24169048  0.43542262  0.68548459  1
  Pt  Pt261  1  0.43542261  0.24169046  0.68548459  1
  Pt  Pt262  1  0.75830954  0.56457739  0.68548459  1
  Pt  Pt263  1  0.43542261  0.75830952  0.68548459  1
  Pt  Pt264  1  0.24169048  0.56457739  0.68548459  1
  Pt  Pt265  1  0.56457738  0.30626786  0.24527856  1
  Pt  Pt266  1  0.56457738  0.30626786  0.75472142  1
  Pt  Pt267  1  0.69373214  0.43542262  0.75472142  1
  Pt  Pt268  1  0.69373214  0.43542262  0.24527856  1
  Pt  Pt269  1  0.69373214  0.56457739  0.75472142  1
  Pt  Pt270  1  0.43542261  0.30626786  0.75472142  1
  Pt  Pt271  1  0.43542261  0.30626786  0.24527856  1
  Pt  Pt272  1  0.69373214  0.56457739  0.24527856  1
  Pt  Pt273  1  0.56457738  0.69373216  0.24527856  1
  Pt  Pt274  1  0.56457738  0.69373216  0.75472142  1
  Pt  Pt275  1  0.30626784  0.43542262  0.75472142  1
  Pt  Pt276  1  0.30626784  0.43542262  0.24527856  1
  Pt  Pt277  1  0.30626784  0.56457739  0.24527856  1
  Pt  Pt278  1  0.30626784  0.56457739  0.75472142  1
  Pt  Pt279  1  0.43542261  0.69373216  0.75472142  1
  Pt  Pt280  1  0.43542261  0.69373216  0.24527856  1
  Pt  Pt281  1  0.82288691  0.43542262  0.49999999  1
  Pt  Pt282  1  0.56457738  0.17711309  0.49999999  1
  Pt  Pt283  1  0.82288691  0.56457739  0.49999999  1
  Pt  Pt284  1  0.43542261  0.17711309  0.49999999  1
  Pt  Pt285  1  0.56457738  0.82288692  0.49999999  1
  Pt  Pt286  1  0.17711308  0.43542262  0.49999999  1
  Pt  Pt287  1  0.17711308  0.56457739  0.49999999  1
  Pt  Pt288  1  0.43542261  0.82288692  0.49999999  1
  Pt  Pt289  1  0.82288691  0.49999999  0.43076316  1
  Pt  Pt290  1  0.50000001  0.17711309  0.43076316  1
  Pt  Pt291  1  0.69373214  0.24169046  0.43076316  1
  Pt  Pt292  1  0.75830954  0.30626786  0.43076316  1
  Pt  Pt293  1  0.24169048  0.30626786  0.43076316  1
  Pt  Pt294  1  0.69373214  0.75830952  0.43076316  1
  Pt  Pt295  1  0.82288691  0.49999999  0.56923686  1
  Pt  Pt296  1  0.50000001  0.17711309  0.56923686  1
  Pt  Pt297  1  0.69373214  0.24169046  0.56923686  1
  Pt  Pt298  1  0.69373214  0.75830952  0.56923686  1
  Pt  Pt299  1  0.75830954  0.30626786  0.56923686  1
  Pt  Pt300  1  0.24169048  0.30626786  0.56923686  1
  Pt  Pt301  1  0.30626784  0.24169046  0.43076316  1
  Pt  Pt302  1  0.30626784  0.75830952  0.43076316  1
  Pt  Pt303  1  0.75830954  0.69373216  0.43076316  1
  Pt  Pt304  1  0.24169048  0.69373216  0.43076316  1
  Pt  Pt305  1  0.17711308  0.49999999  0.43076316  1
  Pt  Pt306  1  0.50000001  0.82288692  0.43076316  1
  Pt  Pt307  1  0.30626784  0.24169046  0.56923686  1
  Pt  Pt308  1  0.30626784  0.75830952  0.56923686  1
  Pt  Pt309  1  0.75830954  0.69373216  0.56923686  1
  Pt  Pt310  1  0.24169048  0.69373216  0.56923686  1
  Pt  Pt311  1  0.50000001  0.82288692  0.56923686  1
  Pt  Pt312  1  0.17711308  0.49999999  0.56923686  1
  Pt  Pt313  1  0.56457738  0.49999999  0.17604172  1
  Pt  Pt314  1  0.50000001  0.43542262  0.17604172  1
  Pt  Pt315  1  0.50000001  0.56457739  0.17604172  1
  Pt  Pt316  1  0.43542261  0.49999999  0.17604172  1
  Pt  Pt317  1  0.50000001  0.43542262  0.82395829  1
  Pt  Pt318  1  0.56457738  0.49999999  0.82395829  1
  Pt  Pt319  1  0.50000001  0.56457739  0.82395829  1
  Pt  Pt320  1  0.43542261  0.49999999  0.82395829  1
