data_image0
_chemical_formula_structural       Co74Pt247H
_chemical_formula_sum              "Co74 Pt247 H1"
_cell_length_a       30
_cell_length_b       30
_cell_length_c       30
_cell_angle_alpha    90
_cell_angle_beta     90
_cell_angle_gamma    90

_space_group_name_H-M_alt    "P 1"
_space_group_IT_number       1

loop_
  _space_group_symop_operation_xyz
  'x, y, z'

loop_
  _atom_site_type_symbol
  _atom_site_label
  _atom_site_symmetry_multiplicity
  _atom_site_fract_x
  _atom_site_fract_y
  _atom_site_fract_z
  _atom_site_occupancy
  Co  Co1       1.0  0.50000  0.50000  0.37264  1.0000
  Co  Co2       1.0  0.50000  0.50000  0.62736  1.0000
  Co  Co3       1.0  0.56458  0.43542  0.37264  1.0000
  Co  Co4       1.0  0.56458  0.56458  0.37264  1.0000
  Co  Co5       1.0  0.43542  0.43542  0.37264  1.0000
  Co  Co6       1.0  0.56458  0.43542  0.62736  1.0000
  Co  Co7       1.0  0.43542  0.56458  0.37264  1.0000
  Co  Co8       1.0  0.56458  0.56458  0.62736  1.0000
  Co  Co9       1.0  0.43542  0.43542  0.62736  1.0000
  Co  Co10      1.0  0.43542  0.56458  0.62736  1.0000
  Co  Co11      1.0  0.62915  0.50000  0.37264  1.0000
  Co  Co12      1.0  0.50000  0.62915  0.37264  1.0000
  Co  Co13      1.0  0.50000  0.37085  0.37264  1.0000
  Co  Co14      1.0  0.37085  0.50000  0.37264  1.0000
  Co  Co15      1.0  0.62915  0.50000  0.62736  1.0000
  Co  Co16      1.0  0.50000  0.37085  0.62736  1.0000
  Co  Co17      1.0  0.37085  0.50000  0.62736  1.0000
  Co  Co18      1.0  0.50000  0.62915  0.62736  1.0000
  Co  Co19      1.0  0.62915  0.62915  0.37264  1.0000
  Co  Co20      1.0  0.62915  0.37085  0.37264  1.0000
  Co  Co21      1.0  0.37085  0.37085  0.37264  1.0000
  Co  Co22      1.0  0.37085  0.62915  0.37264  1.0000
  Co  Co23      1.0  0.62915  0.37085  0.62736  1.0000
  Co  Co24      1.0  0.62915  0.62915  0.62736  1.0000
  Co  Co25      1.0  0.37085  0.37085  0.62736  1.0000
  Co  Co26      1.0  0.37085  0.62915  0.62736  1.0000
  Co  Co27      1.0  0.69373  0.43542  0.37264  1.0000
  Co  Co28      1.0  0.56458  0.30627  0.37264  1.0000
  Co  Co29      1.0  0.69373  0.56458  0.37264  1.0000
  Co  Co30      1.0  0.43542  0.30627  0.37264  1.0000
  Co  Co31      1.0  0.56458  0.30627  0.62736  1.0000
  Co  Co32      1.0  0.69373  0.43542  0.62736  1.0000
  Co  Co33      1.0  0.43542  0.30627  0.62736  1.0000
  Co  Co34      1.0  0.69373  0.56458  0.62736  1.0000
  Co  Co35      1.0  0.56458  0.69373  0.37264  1.0000
  Co  Co36      1.0  0.30627  0.43542  0.37264  1.0000
  Co  Co37      1.0  0.30627  0.56458  0.37264  1.0000
  Co  Co38      1.0  0.43542  0.69373  0.37264  1.0000
  Co  Co39      1.0  0.56458  0.69373  0.62736  1.0000
  Co  Co40      1.0  0.30627  0.43542  0.62736  1.0000
  Co  Co41      1.0  0.30627  0.56458  0.62736  1.0000
  Co  Co42      1.0  0.43542  0.69373  0.62736  1.0000
  Co  Co43      1.0  0.75831  0.50000  0.37264  1.0000
  Co  Co44      1.0  0.50000  0.24169  0.37264  1.0000
  Co  Co45      1.0  0.50000  0.75831  0.37264  1.0000
  Co  Co46      1.0  0.24169  0.50000  0.37264  1.0000
  Co  Co47      1.0  0.50000  0.24169  0.62736  1.0000
  Co  Co48      1.0  0.75831  0.50000  0.62736  1.0000
  Co  Co49      1.0  0.50000  0.75831  0.62736  1.0000
  Co  Co50      1.0  0.24169  0.50000  0.62736  1.0000
  Co  Co51      1.0  0.69373  0.30627  0.37264  1.0000
  Co  Co52      1.0  0.69373  0.30627  0.62736  1.0000
  Co  Co53      1.0  0.69373  0.69373  0.37264  1.0000
  Co  Co54      1.0  0.30627  0.30627  0.37264  1.0000
  Co  Co55      1.0  0.30627  0.30627  0.62736  1.0000
  Co  Co56      1.0  0.69373  0.69373  0.62736  1.0000
  Co  Co57      1.0  0.30627  0.69373  0.37264  1.0000
  Co  Co58      1.0  0.30627  0.69373  0.62736  1.0000
  Co  Co59      1.0  0.62915  0.75831  0.37264  1.0000
  Co  Co60      1.0  0.62915  0.24169  0.37264  1.0000
  Co  Co61      1.0  0.75831  0.62915  0.37264  1.0000
  Co  Co62      1.0  0.37085  0.75831  0.37264  1.0000
  Co  Co63      1.0  0.75831  0.37085  0.37264  1.0000
  Co  Co64      1.0  0.37085  0.24169  0.37264  1.0000
  Co  Co65      1.0  0.24169  0.62915  0.37264  1.0000
  Co  Co66      1.0  0.24169  0.37085  0.37264  1.0000
  Co  Co67      1.0  0.37085  0.24169  0.62736  1.0000
  Co  Co68      1.0  0.62915  0.24169  0.62736  1.0000
  Co  Co69      1.0  0.62915  0.75831  0.62736  1.0000
  Co  Co70      1.0  0.37085  0.75831  0.62736  1.0000
  Co  Co71      1.0  0.75831  0.37085  0.62736  1.0000
  Co  Co72      1.0  0.24169  0.37085  0.62736  1.0000
  Co  Co73      1.0  0.75831  0.62915  0.62736  1.0000
  Co  Co74      1.0  0.24169  0.62915  0.62736  1.0000
  Pt  Pt1       1.0  0.50000  0.50000  0.50000  1.0000
  Pt  Pt2       1.0  0.56458  0.43542  0.50000  1.0000
  Pt  Pt3       1.0  0.56458  0.56458  0.50000  1.0000
  Pt  Pt4       1.0  0.43542  0.43542  0.50000  1.0000
  Pt  Pt5       1.0  0.43542  0.56458  0.50000  1.0000
  Pt  Pt6       1.0  0.56458  0.50000  0.43076  1.0000
  Pt  Pt7       1.0  0.50000  0.43542  0.43076  1.0000
  Pt  Pt8       1.0  0.50000  0.56458  0.43076  1.0000
  Pt  Pt9       1.0  0.43542  0.50000  0.43076  1.0000
  Pt  Pt10      1.0  0.56458  0.50000  0.56924  1.0000
  Pt  Pt11      1.0  0.50000  0.43542  0.56924  1.0000
  Pt  Pt12      1.0  0.43542  0.50000  0.56924  1.0000
  Pt  Pt13      1.0  0.50000  0.56458  0.56924  1.0000
  Pt  Pt14      1.0  0.62915  0.50000  0.50000  1.0000
  Pt  Pt15      1.0  0.50000  0.37085  0.50000  1.0000
  Pt  Pt16      1.0  0.37085  0.50000  0.50000  1.0000
  Pt  Pt17      1.0  0.50000  0.62915  0.50000  1.0000
  Pt  Pt18      1.0  0.62915  0.43542  0.43076  1.0000
  Pt  Pt19      1.0  0.56458  0.37085  0.43076  1.0000
  Pt  Pt20      1.0  0.56458  0.62915  0.43076  1.0000
  Pt  Pt21      1.0  0.37085  0.43542  0.43076  1.0000
  Pt  Pt22      1.0  0.62915  0.56458  0.43076  1.0000
  Pt  Pt23      1.0  0.43542  0.37085  0.43076  1.0000
  Pt  Pt24      1.0  0.37085  0.56458  0.43076  1.0000
  Pt  Pt25      1.0  0.43542  0.62915  0.43076  1.0000
  Pt  Pt26      1.0  0.56458  0.37085  0.56924  1.0000
  Pt  Pt27      1.0  0.62915  0.43542  0.56924  1.0000
  Pt  Pt28      1.0  0.56458  0.62915  0.56924  1.0000
  Pt  Pt29      1.0  0.37085  0.43542  0.56924  1.0000
  Pt  Pt30      1.0  0.62915  0.56458  0.56924  1.0000
  Pt  Pt31      1.0  0.43542  0.37085  0.56924  1.0000
  Pt  Pt32      1.0  0.43542  0.62915  0.56924  1.0000
  Pt  Pt33      1.0  0.37085  0.56458  0.56924  1.0000
  Pt  Pt34      1.0  0.62915  0.37085  0.50000  1.0000
  Pt  Pt35      1.0  0.62915  0.62915  0.50000  1.0000
  Pt  Pt36      1.0  0.37085  0.37085  0.50000  1.0000
  Pt  Pt37      1.0  0.37085  0.62915  0.50000  1.0000
  Pt  Pt38      1.0  0.56458  0.50000  0.31452  1.0000
  Pt  Pt39      1.0  0.50000  0.43542  0.31452  1.0000
  Pt  Pt40      1.0  0.43542  0.50000  0.31452  1.0000
  Pt  Pt41      1.0  0.50000  0.56458  0.31452  1.0000
  Pt  Pt42      1.0  0.56458  0.50000  0.68548  1.0000
  Pt  Pt43      1.0  0.50000  0.43542  0.68548  1.0000
  Pt  Pt44      1.0  0.50000  0.56458  0.68548  1.0000
  Pt  Pt45      1.0  0.43542  0.50000  0.68548  1.0000
  Pt  Pt46      1.0  0.56458  0.30627  0.50000  1.0000
  Pt  Pt47      1.0  0.69373  0.43542  0.50000  1.0000
  Pt  Pt48      1.0  0.69373  0.56458  0.50000  1.0000
  Pt  Pt49      1.0  0.43542  0.30627  0.50000  1.0000
  Pt  Pt50      1.0  0.56458  0.69373  0.50000  1.0000
  Pt  Pt51      1.0  0.30627  0.43542  0.50000  1.0000
  Pt  Pt52      1.0  0.30627  0.56458  0.50000  1.0000
  Pt  Pt53      1.0  0.43542  0.69373  0.50000  1.0000
  Pt  Pt54      1.0  0.50000  0.30627  0.43076  1.0000
  Pt  Pt55      1.0  0.69373  0.50000  0.43076  1.0000
  Pt  Pt56      1.0  0.69373  0.50000  0.56924  1.0000
  Pt  Pt57      1.0  0.50000  0.30627  0.56924  1.0000
  Pt  Pt58      1.0  0.30627  0.50000  0.43076  1.0000
  Pt  Pt59      1.0  0.50000  0.69373  0.43076  1.0000
  Pt  Pt60      1.0  0.30627  0.50000  0.56924  1.0000
  Pt  Pt61      1.0  0.50000  0.69373  0.56924  1.0000
  Pt  Pt62      1.0  0.56458  0.37085  0.31452  1.0000
  Pt  Pt63      1.0  0.62915  0.43542  0.31452  1.0000
  Pt  Pt64      1.0  0.56458  0.62915  0.31452  1.0000
  Pt  Pt65      1.0  0.37085  0.43542  0.31452  1.0000
  Pt  Pt66      1.0  0.62915  0.56458  0.31452  1.0000
  Pt  Pt67      1.0  0.37085  0.56458  0.31452  1.0000
  Pt  Pt68      1.0  0.43542  0.37085  0.31452  1.0000
  Pt  Pt69      1.0  0.43542  0.62915  0.31452  1.0000
  Pt  Pt70      1.0  0.62915  0.43542  0.68548  1.0000
  Pt  Pt71      1.0  0.56458  0.37085  0.68548  1.0000
  Pt  Pt72      1.0  0.56458  0.62915  0.68548  1.0000
  Pt  Pt73      1.0  0.37085  0.43542  0.68548  1.0000
  Pt  Pt74      1.0  0.62915  0.56458  0.68548  1.0000
  Pt  Pt75      1.0  0.43542  0.37085  0.68548  1.0000
  Pt  Pt76      1.0  0.37085  0.56458  0.68548  1.0000
  Pt  Pt77      1.0  0.43542  0.62915  0.68548  1.0000
  Pt  Pt78      1.0  0.62915  0.30627  0.43076  1.0000
  Pt  Pt79      1.0  0.37085  0.30627  0.43076  1.0000
  Pt  Pt80      1.0  0.69373  0.37085  0.43076  1.0000
  Pt  Pt81      1.0  0.69373  0.62915  0.43076  1.0000
  Pt  Pt82      1.0  0.62915  0.30627  0.56924  1.0000
  Pt  Pt83      1.0  0.69373  0.37085  0.56924  1.0000
  Pt  Pt84      1.0  0.69373  0.62915  0.56924  1.0000
  Pt  Pt85      1.0  0.37085  0.30627  0.56924  1.0000
  Pt  Pt86      1.0  0.62915  0.69373  0.43076  1.0000
  Pt  Pt87      1.0  0.30627  0.37085  0.43076  1.0000
  Pt  Pt88      1.0  0.30627  0.62915  0.43076  1.0000
  Pt  Pt89      1.0  0.37085  0.69373  0.43076  1.0000
  Pt  Pt90      1.0  0.62915  0.69373  0.56924  1.0000
  Pt  Pt91      1.0  0.30627  0.37085  0.56924  1.0000
  Pt  Pt92      1.0  0.30627  0.62915  0.56924  1.0000
  Pt  Pt93      1.0  0.37085  0.69373  0.56924  1.0000
  Pt  Pt94      1.0  0.50000  0.50000  0.75472  1.0000
  Pt  Pt95      1.0  0.50000  0.50000  0.24528  1.0000
  Pt  Pt96      1.0  0.50000  0.24169  0.50000  1.0000
  Pt  Pt97      1.0  0.75831  0.50000  0.50000  1.0000
  Pt  Pt98      1.0  0.50000  0.75831  0.50000  1.0000
  Pt  Pt99      1.0  0.24169  0.50000  0.50000  1.0000
  Pt  Pt100     1.0  0.50000  0.30627  0.31452  1.0000
  Pt  Pt101     1.0  0.69373  0.50000  0.31452  1.0000
  Pt  Pt102     1.0  0.69373  0.50000  0.68548  1.0000
  Pt  Pt103     1.0  0.50000  0.30627  0.68548  1.0000
  Pt  Pt104     1.0  0.30627  0.50000  0.31452  1.0000
  Pt  Pt105     1.0  0.50000  0.69373  0.31452  1.0000
  Pt  Pt106     1.0  0.30627  0.50000  0.68548  1.0000
  Pt  Pt107     1.0  0.50000  0.69373  0.68548  1.0000
  Pt  Pt108     1.0  0.56458  0.43542  0.75472  1.0000
  Pt  Pt109     1.0  0.56458  0.43542  0.24528  1.0000
  Pt  Pt110     1.0  0.56458  0.56458  0.75472  1.0000
  Pt  Pt111     1.0  0.56458  0.56458  0.24528  1.0000
  Pt  Pt112     1.0  0.43542  0.43542  0.75472  1.0000
  Pt  Pt113     1.0  0.43542  0.43542  0.24528  1.0000
  Pt  Pt114     1.0  0.43542  0.56458  0.24528  1.0000
  Pt  Pt115     1.0  0.43542  0.56458  0.75472  1.0000
  Pt  Pt116     1.0  0.69373  0.30627  0.50000  1.0000
  Pt  Pt117     1.0  0.30627  0.30627  0.50000  1.0000
  Pt  Pt118     1.0  0.69373  0.69373  0.50000  1.0000
  Pt  Pt119     1.0  0.30627  0.69373  0.50000  1.0000
  Pt  Pt120     1.0  0.56458  0.24169  0.43076  1.0000
  Pt  Pt121     1.0  0.56458  0.75831  0.43076  1.0000
  Pt  Pt122     1.0  0.75831  0.43542  0.43076  1.0000
  Pt  Pt123     1.0  0.24169  0.43542  0.43076  1.0000
  Pt  Pt124     1.0  0.43542  0.24169  0.43076  1.0000
  Pt  Pt125     1.0  0.75831  0.56458  0.43076  1.0000
  Pt  Pt126     1.0  0.24169  0.56458  0.43076  1.0000
  Pt  Pt127     1.0  0.43542  0.75831  0.43076  1.0000
  Pt  Pt128     1.0  0.56458  0.24169  0.56924  1.0000
  Pt  Pt129     1.0  0.56458  0.75831  0.56924  1.0000
  Pt  Pt130     1.0  0.75831  0.43542  0.56924  1.0000
  Pt  Pt131     1.0  0.24169  0.43542  0.56924  1.0000
  Pt  Pt132     1.0  0.43542  0.24169  0.56924  1.0000
  Pt  Pt133     1.0  0.43542  0.75831  0.56924  1.0000
  Pt  Pt134     1.0  0.75831  0.56458  0.56924  1.0000
  Pt  Pt135     1.0  0.24169  0.56458  0.56924  1.0000
  Pt  Pt136     1.0  0.62915  0.50000  0.24528  1.0000
  Pt  Pt137     1.0  0.62915  0.50000  0.75472  1.0000
  Pt  Pt138     1.0  0.50000  0.37085  0.75472  1.0000
  Pt  Pt139     1.0  0.50000  0.37085  0.24528  1.0000
  Pt  Pt140     1.0  0.50000  0.62915  0.24528  1.0000
  Pt  Pt141     1.0  0.37085  0.50000  0.75472  1.0000
  Pt  Pt142     1.0  0.37085  0.50000  0.24528  1.0000
  Pt  Pt143     1.0  0.50000  0.62915  0.75472  1.0000
  Pt  Pt144     1.0  0.62915  0.24169  0.50000  1.0000
  Pt  Pt145     1.0  0.37085  0.24169  0.50000  1.0000
  Pt  Pt146     1.0  0.62915  0.75831  0.50000  1.0000
  Pt  Pt147     1.0  0.75831  0.62915  0.50000  1.0000
  Pt  Pt148     1.0  0.37085  0.75831  0.50000  1.0000
  Pt  Pt149     1.0  0.75831  0.37085  0.50000  1.0000
  Pt  Pt150     1.0  0.24169  0.62915  0.50000  1.0000
  Pt  Pt151     1.0  0.24169  0.37085  0.50000  1.0000
  Pt  Pt152     1.0  0.62915  0.30627  0.31452  1.0000
  Pt  Pt153     1.0  0.69373  0.37085  0.31452  1.0000
  Pt  Pt154     1.0  0.37085  0.30627  0.31452  1.0000
  Pt  Pt155     1.0  0.69373  0.62915  0.31452  1.0000
  Pt  Pt156     1.0  0.62915  0.30627  0.68548  1.0000
  Pt  Pt157     1.0  0.37085  0.30627  0.68548  1.0000
  Pt  Pt158     1.0  0.69373  0.37085  0.68548  1.0000
  Pt  Pt159     1.0  0.69373  0.62915  0.68548  1.0000
  Pt  Pt160     1.0  0.62915  0.69373  0.31452  1.0000
  Pt  Pt161     1.0  0.30627  0.37085  0.31452  1.0000
  Pt  Pt162     1.0  0.30627  0.62915  0.31452  1.0000
  Pt  Pt163     1.0  0.37085  0.69373  0.31452  1.0000
  Pt  Pt164     1.0  0.62915  0.69373  0.68548  1.0000
  Pt  Pt165     1.0  0.30627  0.37085  0.68548  1.0000
  Pt  Pt166     1.0  0.30627  0.62915  0.68548  1.0000
  Pt  Pt167     1.0  0.37085  0.69373  0.68548  1.0000
  Pt  Pt168     1.0  0.62915  0.37085  0.75472  1.0000
  Pt  Pt169     1.0  0.62915  0.37085  0.24528  1.0000
  Pt  Pt170     1.0  0.62915  0.62915  0.75472  1.0000
  Pt  Pt171     1.0  0.62915  0.62915  0.24528  1.0000
  Pt  Pt172     1.0  0.37085  0.37085  0.24528  1.0000
  Pt  Pt173     1.0  0.37085  0.62915  0.24528  1.0000
  Pt  Pt174     1.0  0.37085  0.37085  0.75472  1.0000
  Pt  Pt175     1.0  0.37085  0.62915  0.75472  1.0000
  Pt  Pt176     1.0  0.56458  0.24169  0.31452  1.0000
  Pt  Pt177     1.0  0.75831  0.43542  0.31452  1.0000
  Pt  Pt178     1.0  0.56458  0.75831  0.31452  1.0000
  Pt  Pt179     1.0  0.24169  0.43542  0.31452  1.0000
  Pt  Pt180     1.0  0.43542  0.24169  0.31452  1.0000
  Pt  Pt181     1.0  0.24169  0.56458  0.31452  1.0000
  Pt  Pt182     1.0  0.75831  0.56458  0.31452  1.0000
  Pt  Pt183     1.0  0.43542  0.75831  0.31452  1.0000
  Pt  Pt184     1.0  0.56458  0.24169  0.68548  1.0000
  Pt  Pt185     1.0  0.56458  0.75831  0.68548  1.0000
  Pt  Pt186     1.0  0.75831  0.43542  0.68548  1.0000
  Pt  Pt187     1.0  0.24169  0.43542  0.68548  1.0000
  Pt  Pt188     1.0  0.43542  0.24169  0.68548  1.0000
  Pt  Pt189     1.0  0.75831  0.56458  0.68548  1.0000
  Pt  Pt190     1.0  0.43542  0.75831  0.68548  1.0000
  Pt  Pt191     1.0  0.24169  0.56458  0.68548  1.0000
  Pt  Pt192     1.0  0.56458  0.30627  0.24528  1.0000
  Pt  Pt193     1.0  0.56458  0.30627  0.75472  1.0000
  Pt  Pt194     1.0  0.69373  0.43542  0.75472  1.0000
  Pt  Pt195     1.0  0.69373  0.43542  0.24528  1.0000
  Pt  Pt196     1.0  0.69373  0.56458  0.75472  1.0000
  Pt  Pt197     1.0  0.43542  0.30627  0.75472  1.0000
  Pt  Pt198     1.0  0.43542  0.30627  0.24528  1.0000
  Pt  Pt199     1.0  0.69373  0.56458  0.24528  1.0000
  Pt  Pt200     1.0  0.56458  0.69373  0.24528  1.0000
  Pt  Pt201     1.0  0.56458  0.69373  0.75472  1.0000
  Pt  Pt202     1.0  0.30627  0.43542  0.75472  1.0000
  Pt  Pt203     1.0  0.30627  0.43542  0.24528  1.0000
  Pt  Pt204     1.0  0.30627  0.56458  0.24528  1.0000
  Pt  Pt205     1.0  0.30627  0.56458  0.75472  1.0000
  Pt  Pt206     1.0  0.43542  0.69373  0.75472  1.0000
  Pt  Pt207     1.0  0.43542  0.69373  0.24528  1.0000
  Pt  Pt208     1.0  0.82289  0.43542  0.50000  1.0000
  Pt  Pt209     1.0  0.56458  0.17711  0.50000  1.0000
  Pt  Pt210     1.0  0.82289  0.56458  0.50000  1.0000
  Pt  Pt211     1.0  0.43542  0.17711  0.50000  1.0000
  Pt  Pt212     1.0  0.56458  0.82289  0.50000  1.0000
  Pt  Pt213     1.0  0.17711  0.43542  0.50000  1.0000
  Pt  Pt214     1.0  0.17711  0.56458  0.50000  1.0000
  Pt  Pt215     1.0  0.43542  0.82289  0.50000  1.0000
  Pt  Pt216     1.0  0.82289  0.50000  0.43076  1.0000
  Pt  Pt217     1.0  0.50000  0.17711  0.43076  1.0000
  Pt  Pt218     1.0  0.69373  0.24169  0.43076  1.0000
  Pt  Pt219     1.0  0.75831  0.30627  0.43076  1.0000
  Pt  Pt220     1.0  0.24169  0.30627  0.43076  1.0000
  Pt  Pt221     1.0  0.69373  0.75831  0.43076  1.0000
  Pt  Pt222     1.0  0.82289  0.50000  0.56924  1.0000
  Pt  Pt223     1.0  0.50000  0.17711  0.56924  1.0000
  Pt  Pt224     1.0  0.69373  0.24169  0.56924  1.0000
  Pt  Pt225     1.0  0.69373  0.75831  0.56924  1.0000
  Pt  Pt226     1.0  0.75831  0.30627  0.56924  1.0000
  Pt  Pt227     1.0  0.24169  0.30627  0.56924  1.0000
  Pt  Pt228     1.0  0.30627  0.24169  0.43076  1.0000
  Pt  Pt229     1.0  0.30627  0.75831  0.43076  1.0000
  Pt  Pt230     1.0  0.75831  0.69373  0.43076  1.0000
  Pt  Pt231     1.0  0.24169  0.69373  0.43076  1.0000
  Pt  Pt232     1.0  0.17711  0.50000  0.43076  1.0000
  Pt  Pt233     1.0  0.50000  0.82289  0.43076  1.0000
  Pt  Pt234     1.0  0.30627  0.24169  0.56924  1.0000
  Pt  Pt235     1.0  0.30627  0.75831  0.56924  1.0000
  Pt  Pt236     1.0  0.75831  0.69373  0.56924  1.0000
  Pt  Pt237     1.0  0.24169  0.69373  0.56924  1.0000
  Pt  Pt238     1.0  0.50000  0.82289  0.56924  1.0000
  Pt  Pt239     1.0  0.17711  0.50000  0.56924  1.0000
  Pt  Pt240     1.0  0.56458  0.50000  0.17604  1.0000
  Pt  Pt241     1.0  0.50000  0.43542  0.17604  1.0000
  Pt  Pt242     1.0  0.50000  0.56458  0.17604  1.0000
  Pt  Pt243     1.0  0.43542  0.50000  0.17604  1.0000
  Pt  Pt244     1.0  0.50000  0.43542  0.82396  1.0000
  Pt  Pt245     1.0  0.56458  0.50000  0.82396  1.0000
  Pt  Pt246     1.0  0.50000  0.56458  0.82396  1.0000
  Pt  Pt247     1.0  0.43542  0.50000  0.82396  1.0000
  H   H1        1.0  0.34012  0.27741  0.71706  1.0000
