# generated using pymatgen
data_HPt133Au116
_symmetry_space_group_name_H-M   'P 1'
_cell_length_a   30.00000000
_cell_length_b   30.00000000
_cell_length_c   30.00000000
_cell_angle_alpha   90.00000000
_cell_angle_beta   90.00000000
_cell_angle_gamma   90.00000000
_symmetry_Int_Tables_number   1
_chemical_formula_structural   HPt133Au116
_chemical_formula_sum   'H1 Pt133 Au116'
_cell_volume   27000.00000000
_cell_formula_units_Z   1
loop_
 _symmetry_equiv_pos_site_id
 _symmetry_equiv_pos_as_xyz
  1  'x, y, z'
loop_
 _atom_site_type_symbol
 _atom_site_label
 _atom_site_symmetry_multiplicity
 _atom_site_fract_x
 _atom_site_fract_y
 _atom_site_fract_z
 _atom_site_occupancy
  H  H0  1  0.56647302  0.56466311  0.17355874  1
  Pt  Pt1  1  0.49994949  0.50004659  0.50027066  1
  Pt  Pt2  1  0.50000887  0.56538382  0.56503733  1
  Pt  Pt3  1  0.49993817  0.43484545  0.56523261  1
  Pt  Pt4  1  0.50001762  0.43524972  0.43477107  1
  Pt  Pt5  1  0.49996888  0.56512956  0.43525597  1
  Pt  Pt6  1  0.56549929  0.49995981  0.43514398  1
  Pt  Pt7  1  0.43446931  0.50005469  0.43500048  1
  Pt  Pt8  1  0.43448526  0.49996533  0.56524526  1
  Pt  Pt9  1  0.56546451  0.49995777  0.56527839  1
  Pt  Pt10  1  0.43432832  0.43471851  0.50007593  1
  Pt  Pt11  1  0.56559883  0.43465673  0.50020479  1
  Pt  Pt12  1  0.43421847  0.56505168  0.50015907  1
  Pt  Pt13  1  0.56575663  0.56500663  0.50022741  1
  Pt  Pt14  1  0.49999228  0.50008803  0.63184439  1
  Pt  Pt15  1  0.50006716  0.50034057  0.36779618  1
  Pt  Pt16  1  0.50001010  0.63218404  0.50011174  1
  Pt  Pt17  1  0.49994337  0.36807911  0.49991025  1
  Pt  Pt18  1  0.63303038  0.49941075  0.50039833  1
  Pt  Pt19  1  0.36697717  0.49942830  0.50031675  1
  Pt  Pt20  1  0.56518661  0.43516887  0.36906220  1
  Pt  Pt21  1  0.43489284  0.43526861  0.36896285  1
  Pt  Pt22  1  0.56528113  0.56500386  0.36965729  1
  Pt  Pt23  1  0.43468808  0.56504931  0.36922516  1
  Pt  Pt24  1  0.56480667  0.36896659  0.43461639  1
  Pt  Pt25  1  0.43521213  0.36909180  0.43452615  1
  Pt  Pt26  1  0.56557848  0.63081541  0.43531900  1
  Pt  Pt27  1  0.43450505  0.63077929  0.43518337  1
  Pt  Pt28  1  0.43454025  0.56502198  0.63078745  1
  Pt  Pt29  1  0.56548191  0.56502294  0.63080681  1
  Pt  Pt30  1  0.43451413  0.43484505  0.63075290  1
  Pt  Pt31  1  0.56549295  0.43482773  0.63073465  1
  Pt  Pt32  1  0.43449760  0.63097687  0.56493796  1
  Pt  Pt33  1  0.56546584  0.63099565  0.56489566  1
  Pt  Pt34  1  0.43462040  0.36890819  0.56504583  1
  Pt  Pt35  1  0.56525151  0.36884052  0.56503208  1
  Pt  Pt36  1  0.36825343  0.56479756  0.56497914  1
  Pt  Pt37  1  0.63173324  0.56480447  0.56504608  1
  Pt  Pt38  1  0.36791165  0.43397026  0.56503066  1
  Pt  Pt39  1  0.63209122  0.43391121  0.56509529  1
  Pt  Pt40  1  0.63137392  0.43492684  0.43508372  1
  Pt  Pt41  1  0.36850876  0.43494870  0.43502278  1
  Pt  Pt42  1  0.63144678  0.56483729  0.43512808  1
  Pt  Pt43  1  0.36835758  0.56485421  0.43504316  1
  Pt  Pt44  1  0.49998349  0.63136781  0.63110470  1
  Pt  Pt45  1  0.49995362  0.36877765  0.63153353  1
  Pt  Pt46  1  0.50000009  0.36856032  0.36840236  1
  Pt  Pt47  1  0.50009023  0.63122025  0.36887948  1
  Pt  Pt48  1  0.36795121  0.49964493  0.63113919  1
  Pt  Pt49  1  0.63209739  0.49964424  0.63114929  1
  Pt  Pt50  1  0.63181582  0.50005560  0.36842256  1
  Pt  Pt51  1  0.36831347  0.50001893  0.36836178  1
  Pt  Pt52  1  0.63206223  0.63143419  0.50007830  1
  Pt  Pt53  1  0.36801867  0.63143306  0.49996829  1
  Pt  Pt54  1  0.63184240  0.36838924  0.49992998  1
  Pt  Pt55  1  0.36813271  0.36841373  0.49982204  1
  Pt  Pt56  1  0.50004154  0.69779459  0.56526489  1
  Pt  Pt57  1  0.50000774  0.30239990  0.56553280  1
  Pt  Pt58  1  0.49992815  0.30183639  0.43443024  1
  Pt  Pt59  1  0.50005357  0.69733049  0.43485787  1
  Pt  Pt60  1  0.56570800  0.50093040  0.30205005  1
  Pt  Pt61  1  0.43447439  0.50046588  0.30225314  1
  Pt  Pt62  1  0.50006844  0.56533870  0.69754100  1
  Pt  Pt63  1  0.49998887  0.43469597  0.69754211  1
  Pt  Pt64  1  0.43451491  0.30258073  0.49986323  1
  Pt  Pt65  1  0.56543474  0.30263353  0.49982123  1
  Pt  Pt66  1  0.43404037  0.69774969  0.50004600  1
  Pt  Pt67  1  0.56595806  0.69786659  0.50018679  1
  Pt  Pt68  1  0.50032096  0.43498231  0.30215763  1
  Pt  Pt69  1  0.50087324  0.56537326  0.30210753  1
  Pt  Pt70  1  0.43434424  0.50002942  0.69743071  1
  Pt  Pt71  1  0.56552094  0.50011256  0.69750724  1
  Pt  Pt72  1  0.69853933  0.50003058  0.43427340  1
  Pt  Pt73  1  0.30136660  0.49995660  0.43418972  1
  Pt  Pt74  1  0.30125634  0.49931247  0.56558381  1
  Pt  Pt75  1  0.69890114  0.49933589  0.56548998  1
  Pt  Pt76  1  0.30118847  0.43407459  0.49965216  1
  Pt  Pt77  1  0.30163816  0.56509638  0.49981173  1
  Pt  Pt78  1  0.69869527  0.43393865  0.49967900  1
  Pt  Pt79  1  0.69853287  0.56517211  0.50003804  1
  Pt  Pt80  1  0.36898668  0.63045016  0.63045561  1
  Pt  Pt81  1  0.63098096  0.63054725  0.63032924  1
  Pt  Pt82  1  0.36910976  0.36917993  0.63068804  1
  Pt  Pt83  1  0.63078841  0.36915173  0.63067646  1
  Pt  Pt84  1  0.63065927  0.36991609  0.36923267  1
  Pt  Pt85  1  0.36938264  0.36973025  0.36938294  1
  Pt  Pt86  1  0.63094146  0.63053126  0.36944809  1
  Pt  Pt87  1  0.36926846  0.63048455  0.36937805  1
  Pt  Pt88  1  0.56475603  0.36794138  0.30292872  1
  Pt  Pt89  1  0.43529343  0.36808309  0.30283737  1
  Pt  Pt90  1  0.56510827  0.63083501  0.30281830  1
  Pt  Pt91  1  0.43508735  0.63197508  0.30294824  1
  Pt  Pt92  1  0.56471178  0.30240151  0.36757018  1
  Pt  Pt93  1  0.43535068  0.30240430  0.36763036  1
  Pt  Pt94  1  0.56503211  0.69695513  0.36837268  1
  Pt  Pt95  1  0.43505552  0.69708846  0.36818920  1
  Pt  Pt96  1  0.43504388  0.69714741  0.63192532  1
  Pt  Pt97  1  0.56497776  0.69717428  0.63191328  1
  Pt  Pt98  1  0.43495262  0.30281253  0.63207734  1
  Pt  Pt99  1  0.56499522  0.30269951  0.63205994  1
  Pt  Pt100  1  0.36743323  0.69743023  0.56474047  1
  Pt  Pt101  1  0.63266607  0.69751824  0.56479119  1
  Pt  Pt102  1  0.36716865  0.30328501  0.56477351  1
  Pt  Pt103  1  0.63281304  0.30332511  0.56480968  1
  Pt  Pt104  1  0.63203502  0.30282348  0.43466400  1
  Pt  Pt105  1  0.36799748  0.30288978  0.43464785  1
  Pt  Pt106  1  0.63264146  0.69738475  0.43535949  1
  Pt  Pt107  1  0.36743808  0.69729230  0.43520892  1
  Pt  Pt108  1  0.36758156  0.56474341  0.69725732  1
  Pt  Pt109  1  0.63244153  0.56476085  0.69729029  1
  Pt  Pt110  1  0.36805326  0.43522774  0.69739723  1
  Pt  Pt111  1  0.63191815  0.43526426  0.69737754  1
  Pt  Pt112  1  0.43502982  0.63175027  0.69712447  1
  Pt  Pt113  1  0.56507437  0.63191294  0.69712431  1
  Pt  Pt114  1  0.43525157  0.36802015  0.69752160  1
  Pt  Pt115  1  0.56476117  0.36803596  0.69747298  1
  Pt  Pt116  1  0.69778159  0.43562740  0.36750601  1
  Pt  Pt117  1  0.30219382  0.43553263  0.36758509  1
  Pt  Pt118  1  0.69774016  0.56467019  0.36804239  1
  Pt  Pt119  1  0.30224485  0.56477578  0.36769715  1
  Pt  Pt120  1  0.69753327  0.36825918  0.43442140  1
  Pt  Pt121  1  0.30240881  0.36819385  0.43451834  1
  Pt  Pt122  1  0.69774488  0.63200727  0.43527707  1
  Pt  Pt123  1  0.30222387  0.63221601  0.43517865  1
  Pt  Pt124  1  0.63235099  0.43550724  0.30254559  1
  Pt  Pt125  1  0.36771848  0.43532532  0.30259093  1
  Pt  Pt126  1  0.63116129  0.56502021  0.30272620  1
  Pt  Pt127  1  0.36747587  0.56480800  0.30261027  1
  Pt  Pt128  1  0.30211820  0.56467277  0.63207250  1
  Pt  Pt129  1  0.30235297  0.43507778  0.63291442  1
  Pt  Pt130  1  0.69778982  0.56464542  0.63208648  1
  Pt  Pt131  1  0.69764810  0.43513275  0.63296956  1
  Pt  Pt132  1  0.30223729  0.63202573  0.56485625  1
  Pt  Pt133  1  0.69789571  0.63214684  0.56479073  1
  Au  Au134  1  0.29733575  0.36493742  0.56544082  1
  Au  Au135  1  0.70274541  0.36488321  0.56545087  1
  Au  Au136  1  0.49993916  0.76868119  0.49991032  1
  Au  Au137  1  0.50018641  0.23069294  0.50016214  1
  Au  Au138  1  0.49995195  0.50027873  0.76875280  1
  Au  Au139  1  0.50017795  0.50023705  0.23122917  1
  Au  Au140  1  0.76970747  0.49953697  0.50002794  1
  Au  Au141  1  0.23016076  0.49981098  0.50018393  1
  Au  Au142  1  0.56584748  0.23219405  0.43411505  1
  Au  Au143  1  0.43410124  0.23206941  0.43414823  1
  Au  Au144  1  0.56612839  0.76816471  0.43454019  1
  Au  Au145  1  0.43411631  0.76802447  0.43431947  1
  Au  Au146  1  0.43406510  0.76803816  0.56571717  1
  Au  Au147  1  0.56592723  0.76809549  0.56572210  1
  Au  Au148  1  0.43421321  0.23231025  0.56586366  1
  Au  Au149  1  0.56583157  0.23217790  0.56586288  1
  Au  Au150  1  0.50000908  0.70018619  0.70034902  1
  Au  Au151  1  0.50000958  0.29950421  0.70034321  1
  Au  Au152  1  0.49987610  0.29916165  0.29930342  1
  Au  Au153  1  0.50056341  0.70009139  0.30002854  1
  Au  Au154  1  0.70083257  0.50084354  0.29904441  1
  Au  Au155  1  0.29907199  0.50009649  0.29898848  1
  Au  Au156  1  0.56594517  0.43428402  0.23203653  1
  Au  Au157  1  0.43416043  0.43432968  0.23221769  1
  Au  Au158  1  0.56652407  0.56637463  0.22658067  1
  Au  Au159  1  0.43408602  0.56582672  0.23197555  1
  Au  Au160  1  0.43407428  0.56572523  0.76800970  1
  Au  Au161  1  0.56597387  0.56589113  0.76793592  1
  Au  Au162  1  0.43441360  0.43451813  0.76835665  1
  Au  Au163  1  0.56558680  0.43454619  0.76835680  1
  Au  Au164  1  0.29880074  0.29915111  0.49791491  1
  Au  Au165  1  0.29885929  0.70068894  0.50022347  1
  Au  Au166  1  0.70104459  0.29920601  0.49787307  1
  Au  Au167  1  0.70113874  0.70077335  0.50003325  1
  Au  Au168  1  0.23164064  0.56568522  0.56573405  1
  Au  Au169  1  0.23080133  0.43358177  0.56612941  1
  Au  Au170  1  0.76843414  0.56565550  0.56592831  1
  Au  Au171  1  0.76914276  0.43353417  0.56619074  1
  Au  Au172  1  0.76907413  0.43521084  0.43304851  1
  Au  Au173  1  0.76918279  0.56570387  0.43420929  1
  Au  Au174  1  0.23095774  0.43527638  0.43309135  1
  Au  Au175  1  0.23157091  0.56566398  0.43403755  1
  Au  Au176  1  0.29921109  0.50040177  0.70103077  1
  Au  Au177  1  0.70086712  0.50042751  0.70103383  1
  Au  Au178  1  0.49999865  0.76402427  0.63247598  1
  Au  Au179  1  0.49998902  0.23573618  0.63268182  1
  Au  Au180  1  0.49997986  0.23516400  0.36727382  1
  Au  Au181  1  0.50023256  0.76369510  0.36802193  1
  Au  Au182  1  0.63303358  0.76452826  0.50004928  1
  Au  Au183  1  0.36707528  0.76441420  0.49990735  1
  Au  Au184  1  0.63231171  0.23622977  0.50034729  1
  Au  Au185  1  0.36747607  0.23641353  0.50023850  1
  Au  Au186  1  0.50000233  0.63236811  0.76411696  1
  Au  Au187  1  0.50005816  0.36763623  0.76412211  1
  Au  Au188  1  0.50003048  0.36743287  0.23595970  1
  Au  Au189  1  0.49950624  0.63231320  0.23638824  1
  Au  Au190  1  0.36731950  0.49998113  0.76440821  1
  Au  Au191  1  0.63268415  0.50000832  0.76440316  1
  Au  Au192  1  0.63276507  0.49974137  0.23586943  1
  Au  Au193  1  0.36725839  0.50002907  0.23556445  1
  Au  Au194  1  0.23519300  0.49968996  0.63292092  1
  Au  Au195  1  0.76484085  0.49969540  0.63294805  1
  Au  Au196  1  0.76501008  0.50040948  0.36649140  1
  Au  Au197  1  0.23489998  0.50035801  0.36629667  1
  Au  Au198  1  0.76477775  0.63251273  0.49994324  1
  Au  Au199  1  0.76644642  0.36810625  0.49696000  1
  Au  Au200  1  0.23522434  0.63246423  0.50000473  1
  Au  Au201  1  0.23356585  0.36815449  0.49697268  1
  Au  Au202  1  0.36888652  0.69860980  0.69889321  1
  Au  Au203  1  0.63118268  0.69876411  0.69887464  1
  Au  Au204  1  0.36941701  0.30110604  0.69964822  1
  Au  Au205  1  0.63057203  0.30110696  0.69969434  1
  Au  Au206  1  0.69929601  0.36914956  0.30099798  1
  Au  Au207  1  0.30067261  0.36917408  0.30115629  1
  Au  Au208  1  0.69918100  0.63065471  0.30103643  1
  Au  Au209  1  0.30059795  0.63096553  0.30083539  1
  Au  Au210  1  0.69947852  0.30085473  0.36905645  1
  Au  Au211  1  0.30047965  0.30074960  0.36907852  1
  Au  Au212  1  0.69935595  0.69898401  0.36921642  1
  Au  Au213  1  0.30058307  0.69910494  0.36907517  1
  Au  Au214  1  0.63104613  0.30117345  0.30111803  1
  Au  Au215  1  0.36906060  0.30135171  0.30114958  1
  Au  Au216  1  0.63066498  0.69907655  0.30099306  1
  Au  Au217  1  0.36903510  0.69919193  0.30111101  1
  Au  Au218  1  0.30049520  0.69900059  0.63084378  1
  Au  Au219  1  0.69949469  0.69915015  0.63091867  1
  Au  Au220  1  0.30006198  0.30132089  0.63395286  1
  Au  Au221  1  0.69991842  0.30129612  0.63398787  1
  Au  Au222  1  0.30042807  0.63072943  0.69906114  1
  Au  Au223  1  0.69956084  0.63074239  0.69894538  1
  Au  Au224  1  0.30101259  0.36980752  0.70092321  1
  Au  Au225  1  0.69891469  0.36980653  0.70097992  1
  Au  Au226  1  0.36887780  0.76145312  0.63083857  1
  Au  Au227  1  0.63107655  0.76151774  0.63084542  1
  Au  Au228  1  0.36802982  0.23921388  0.63014506  1
  Au  Au229  1  0.63197456  0.23924558  0.63015902  1
  Au  Au230  1  0.63124171  0.23829093  0.36897605  1
  Au  Au231  1  0.36877668  0.23831533  0.36895086  1
  Au  Au232  1  0.63092605  0.76142570  0.36911369  1
  Au  Au233  1  0.36895678  0.76153565  0.36928954  1
  Au  Au234  1  0.36883156  0.63079850  0.76152430  1
  Au  Au235  1  0.63118359  0.63085134  0.76150351  1
  Au  Au236  1  0.36978542  0.36923704  0.76222426  1
  Au  Au237  1  0.63014861  0.36915298  0.76228707  1
  Au  Au238  1  0.63098585  0.36923157  0.23851958  1
  Au  Au239  1  0.36896677  0.36927389  0.23845156  1
  Au  Au240  1  0.63148809  0.63152214  0.23857856  1
  Au  Au241  1  0.36891275  0.63097280  0.23855805  1
  Au  Au242  1  0.23782077  0.63076285  0.63089559  1
  Au  Au243  1  0.76218115  0.63085913  0.63082851  1
  Au  Au244  1  0.23656800  0.37176863  0.63596843  1
  Au  Au245  1  0.76338660  0.37176561  0.63606580  1
  Au  Au246  1  0.76211892  0.36916363  0.36888560  1
  Au  Au247  1  0.23785908  0.36897905  0.36916407  1
  Au  Au248  1  0.76184372  0.63060385  0.36894555  1
  Au  Au249  1  0.23794153  0.63090020  0.36918836  1
