# generated using pymatgen
data_HPt133Au116
_symmetry_space_group_name_H-M   'P 1'
_cell_length_a   30.00000000
_cell_length_b   30.00000000
_cell_length_c   30.00000000
_cell_angle_alpha   90.00000000
_cell_angle_beta   90.00000000
_cell_angle_gamma   90.00000000
_symmetry_Int_Tables_number   1
_chemical_formula_structural   HPt133Au116
_chemical_formula_sum   'H1 Pt133 Au116'
_cell_volume   27000.00000000
_cell_formula_units_Z   1
loop_
 _symmetry_equiv_pos_site_id
 _symmetry_equiv_pos_as_xyz
  1  'x, y, z'
loop_
 _atom_site_type_symbol
 _atom_site_label
 _atom_site_symmetry_multiplicity
 _atom_site_fract_x
 _atom_site_fract_y
 _atom_site_fract_z
 _atom_site_occupancy
  H  H0  1  0.19133300  0.66159088  0.63781262  1
  Pt  Pt1  1  0.49983125  0.50016185  0.50028175  1
  Pt  Pt2  1  0.50000484  0.56537838  0.56505819  1
  Pt  Pt3  1  0.49999599  0.43486094  0.56512424  1
  Pt  Pt4  1  0.49984487  0.43534236  0.43478617  1
  Pt  Pt5  1  0.49996469  0.56504191  0.43506647  1
  Pt  Pt6  1  0.56554018  0.49997067  0.43505079  1
  Pt  Pt7  1  0.43432726  0.50000934  0.43501399  1
  Pt  Pt8  1  0.43446035  0.50006292  0.56554787  1
  Pt  Pt9  1  0.56544620  0.49996411  0.56522727  1
  Pt  Pt10  1  0.43432727  0.43482503  0.50024859  1
  Pt  Pt11  1  0.56561295  0.43480094  0.50013517  1
  Pt  Pt12  1  0.43425864  0.56508346  0.50015611  1
  Pt  Pt13  1  0.56562273  0.56502283  0.50014887  1
  Pt  Pt14  1  0.50008172  0.49992981  0.63189498  1
  Pt  Pt15  1  0.49988663  0.50025296  0.36796669  1
  Pt  Pt16  1  0.50003775  0.63215048  0.49985577  1
  Pt  Pt17  1  0.49992085  0.36823472  0.49988753  1
  Pt  Pt18  1  0.63294135  0.49954003  0.50029539  1
  Pt  Pt19  1  0.36725684  0.49948333  0.50049947  1
  Pt  Pt20  1  0.56521478  0.43525857  0.36906593  1
  Pt  Pt21  1  0.43470537  0.43517289  0.36886848  1
  Pt  Pt22  1  0.56539177  0.56494327  0.36917519  1
  Pt  Pt23  1  0.43458734  0.56496473  0.36900161  1
  Pt  Pt24  1  0.56473299  0.36920090  0.43459246  1
  Pt  Pt25  1  0.43518947  0.36908953  0.43449017  1
  Pt  Pt26  1  0.56553508  0.63092210  0.43507797  1
  Pt  Pt27  1  0.43475853  0.63088545  0.43486444  1
  Pt  Pt28  1  0.43474482  0.56528354  0.63082705  1
  Pt  Pt29  1  0.56537466  0.56505101  0.63093204  1
  Pt  Pt30  1  0.43520552  0.43411206  0.63075665  1
  Pt  Pt31  1  0.56561431  0.43468441  0.63072530  1
  Pt  Pt32  1  0.43467142  0.63098293  0.56492383  1
  Pt  Pt33  1  0.56537002  0.63101144  0.56497520  1
  Pt  Pt34  1  0.43459808  0.36872949  0.56495898  1
  Pt  Pt35  1  0.56561646  0.36897846  0.56482564  1
  Pt  Pt36  1  0.36827414  0.56499812  0.56535078  1
  Pt  Pt37  1  0.63159773  0.56485923  0.56503938  1
  Pt  Pt38  1  0.36790209  0.43404856  0.56536052  1
  Pt  Pt39  1  0.63228061  0.43402728  0.56503596  1
  Pt  Pt40  1  0.63146795  0.43490583  0.43504375  1
  Pt  Pt41  1  0.36870032  0.43486868  0.43492651  1
  Pt  Pt42  1  0.63145694  0.56485352  0.43496376  1
  Pt  Pt43  1  0.36856769  0.56471122  0.43484517  1
  Pt  Pt44  1  0.49995932  0.63155673  0.63117779  1
  Pt  Pt45  1  0.50031925  0.36859717  0.63159297  1
  Pt  Pt46  1  0.49994519  0.36849649  0.36856619  1
  Pt  Pt47  1  0.50002261  0.63129000  0.36904742  1
  Pt  Pt48  1  0.36837881  0.49937128  0.63123983  1
  Pt  Pt49  1  0.63206685  0.49967337  0.63117897  1
  Pt  Pt50  1  0.63192961  0.49999804  0.36837526  1
  Pt  Pt51  1  0.36819624  0.49994773  0.36822738  1
  Pt  Pt52  1  0.63190538  0.63137069  0.49997260  1
  Pt  Pt53  1  0.36842120  0.63128547  0.49956867  1
  Pt  Pt54  1  0.63205452  0.36835498  0.49987909  1
  Pt  Pt55  1  0.36818342  0.36848996  0.49986288  1
  Pt  Pt56  1  0.49996372  0.69771620  0.56534839  1
  Pt  Pt57  1  0.50009944  0.30248169  0.56518690  1
  Pt  Pt58  1  0.49991906  0.30191102  0.43449761  1
  Pt  Pt59  1  0.50009916  0.69764076  0.43481866  1
  Pt  Pt60  1  0.56588385  0.50009281  0.30215582  1
  Pt  Pt61  1  0.43411621  0.50024591  0.30196275  1
  Pt  Pt62  1  0.49997320  0.56562990  0.69745900  1
  Pt  Pt63  1  0.50010032  0.43475099  0.69774010  1
  Pt  Pt64  1  0.43431665  0.30252823  0.49992055  1
  Pt  Pt65  1  0.56569998  0.30254767  0.49984314  1
  Pt  Pt66  1  0.43402909  0.69766318  0.50020262  1
  Pt  Pt67  1  0.56587555  0.69787139  0.50013758  1
  Pt  Pt68  1  0.49995189  0.43502580  0.30224902  1
  Pt  Pt69  1  0.50000685  0.56532076  0.30247818  1
  Pt  Pt70  1  0.43428283  0.50019184  0.69720661  1
  Pt  Pt71  1  0.56569000  0.50009526  0.69743201  1
  Pt  Pt72  1  0.69851020  0.49991763  0.43416072  1
  Pt  Pt73  1  0.30158616  0.49971118  0.43403054  1
  Pt  Pt74  1  0.30153166  0.49957905  0.56588183  1
  Pt  Pt75  1  0.69871403  0.49938062  0.56553558  1
  Pt  Pt76  1  0.30142178  0.43407765  0.49973586  1
  Pt  Pt77  1  0.30182666  0.56498860  0.49972231  1
  Pt  Pt78  1  0.69884435  0.43402321  0.49967874  1
  Pt  Pt79  1  0.69839607  0.56517507  0.49987376  1
  Pt  Pt80  1  0.36885259  0.63076926  0.63032468  1
  Pt  Pt81  1  0.63088646  0.63055524  0.63043254  1
  Pt  Pt82  1  0.36921941  0.36909776  0.63065466  1
  Pt  Pt83  1  0.63094040  0.36928366  0.63069698  1
  Pt  Pt84  1  0.63073865  0.36970721  0.36933019  1
  Pt  Pt85  1  0.36941853  0.36947389  0.36906905  1
  Pt  Pt86  1  0.63089808  0.63057225  0.36951123  1
  Pt  Pt87  1  0.36917517  0.63052740  0.36931729  1
  Pt  Pt88  1  0.56475731  0.36819472  0.30300031  1
  Pt  Pt89  1  0.43537039  0.36790639  0.30271108  1
  Pt  Pt90  1  0.56494399  0.63206347  0.30307681  1
  Pt  Pt91  1  0.43509910  0.63209528  0.30293519  1
  Pt  Pt92  1  0.56468546  0.30242189  0.36766893  1
  Pt  Pt93  1  0.43532314  0.30230967  0.36741363  1
  Pt  Pt94  1  0.56508249  0.69734140  0.36804630  1
  Pt  Pt95  1  0.43502216  0.69740049  0.36808293  1
  Pt  Pt96  1  0.43483346  0.69740210  0.63202200  1
  Pt  Pt97  1  0.56499406  0.69731612  0.63198704  1
  Pt  Pt98  1  0.43512464  0.30273053  0.63210791  1
  Pt  Pt99  1  0.56499425  0.30306723  0.63194658  1
  Pt  Pt100  1  0.36726396  0.69692938  0.56471696  1
  Pt  Pt101  1  0.63254003  0.69741815  0.56471649  1
  Pt  Pt102  1  0.36702086  0.30315266  0.56473014  1
  Pt  Pt103  1  0.63297181  0.30294440  0.56481321  1
  Pt  Pt104  1  0.63196197  0.30297622  0.43467772  1
  Pt  Pt105  1  0.36805338  0.30286805  0.43457674  1
  Pt  Pt106  1  0.63264882  0.69747749  0.43535013  1
  Pt  Pt107  1  0.36740883  0.69741537  0.43514956  1
  Pt  Pt108  1  0.36729011  0.56481748  0.69626565  1
  Pt  Pt109  1  0.63245526  0.56479430  0.69730865  1
  Pt  Pt110  1  0.36808759  0.43500916  0.69699573  1
  Pt  Pt111  1  0.63204354  0.43529598  0.69753785  1
  Pt  Pt112  1  0.43484041  0.63216155  0.69711550  1
  Pt  Pt113  1  0.56506558  0.63209783  0.69715074  1
  Pt  Pt114  1  0.43540063  0.36765919  0.69773812  1
  Pt  Pt115  1  0.56472003  0.36784616  0.69779620  1
  Pt  Pt116  1  0.69785381  0.43537075  0.36734247  1
  Pt  Pt117  1  0.30237249  0.43532799  0.36724675  1
  Pt  Pt118  1  0.69785295  0.56473694  0.36778418  1
  Pt  Pt119  1  0.30219234  0.56460805  0.36749135  1
  Pt  Pt120  1  0.69772224  0.36821830  0.43447123  1
  Pt  Pt121  1  0.30249337  0.36828597  0.43444018  1
  Pt  Pt122  1  0.69766452  0.63226678  0.43528378  1
  Pt  Pt123  1  0.30252789  0.63184342  0.43491671  1
  Pt  Pt124  1  0.63237853  0.43533811  0.30247738  1
  Pt  Pt125  1  0.36770005  0.43528446  0.30229786  1
  Pt  Pt126  1  0.63251658  0.56473569  0.30252243  1
  Pt  Pt127  1  0.36746137  0.56483957  0.30228134  1
  Pt  Pt128  1  0.30074529  0.56656551  0.63113502  1
  Pt  Pt129  1  0.30195425  0.43509862  0.63299049  1
  Pt  Pt130  1  0.69777677  0.56469537  0.63214175  1
  Pt  Pt131  1  0.69764847  0.43522297  0.63318992  1
  Pt  Pt132  1  0.30153567  0.63116432  0.56497440  1
  Pt  Pt133  1  0.69777735  0.63206263  0.56472149  1
  Au  Au134  1  0.29726897  0.36485764  0.56553643  1
  Au  Au135  1  0.70284939  0.36478965  0.56547443  1
  Au  Au136  1  0.49984712  0.76895021  0.50013850  1
  Au  Au137  1  0.49981587  0.23073179  0.50019343  1
  Au  Au138  1  0.49992480  0.50043543  0.76862046  1
  Au  Au139  1  0.49996890  0.50024870  0.23096130  1
  Au  Au140  1  0.76976324  0.49955469  0.50005391  1
  Au  Au141  1  0.23054108  0.49919495  0.49997563  1
  Au  Au142  1  0.56588671  0.23214420  0.43426823  1
  Au  Au143  1  0.43404992  0.23207640  0.43407992  1
  Au  Au144  1  0.56596436  0.76794316  0.43438279  1
  Au  Au145  1  0.43400854  0.76782783  0.43434404  1
  Au  Au146  1  0.43378793  0.76787097  0.56592714  1
  Au  Au147  1  0.56599379  0.76807002  0.56573355  1
  Au  Au148  1  0.43403627  0.23231031  0.56580284  1
  Au  Au149  1  0.56607164  0.23225451  0.56561011  1
  Au  Au150  1  0.49997724  0.70035710  0.70031030  1
  Au  Au151  1  0.50014982  0.29921578  0.70052490  1
  Au  Au152  1  0.50024027  0.29920557  0.29923194  1
  Au  Au153  1  0.50000900  0.70038153  0.29998804  1
  Au  Au154  1  0.70095998  0.50011189  0.29888465  1
  Au  Au155  1  0.29921059  0.50008720  0.29870370  1
  Au  Au156  1  0.56593379  0.43448207  0.23199312  1
  Au  Au157  1  0.43412653  0.43436545  0.23195037  1
  Au  Au158  1  0.56602143  0.56580686  0.23212495  1
  Au  Au159  1  0.43397926  0.56601612  0.23194441  1
  Au  Au160  1  0.43388052  0.56584234  0.76749062  1
  Au  Au161  1  0.56602054  0.56602433  0.76773120  1
  Au  Au162  1  0.43421095  0.43462528  0.76807783  1
  Au  Au163  1  0.56558680  0.43462090  0.76830854  1
  Au  Au164  1  0.29884132  0.29927704  0.49771899  1
  Au  Au165  1  0.29919013  0.69967153  0.50047101  1
  Au  Au166  1  0.70143294  0.29915818  0.49756230  1
  Au  Au167  1  0.70118343  0.70074157  0.50029891  1
  Au  Au168  1  0.23134584  0.56552566  0.56516291  1
  Au  Au169  1  0.23102875  0.43338471  0.56637647  1
  Au  Au170  1  0.76830094  0.56563066  0.56586670  1
  Au  Au171  1  0.76911052  0.43350371  0.56623861  1
  Au  Au172  1  0.76896251  0.43502224  0.43294090  1
  Au  Au173  1  0.76858108  0.56559751  0.43407434  1
  Au  Au174  1  0.23109893  0.43497769  0.43278206  1
  Au  Au175  1  0.23151501  0.56504105  0.43370236  1
  Au  Au176  1  0.29919452  0.50117590  0.69954753  1
  Au  Au177  1  0.70092043  0.50056316  0.70103980  1
  Au  Au178  1  0.49997994  0.76414178  0.63243259  1
  Au  Au179  1  0.50024094  0.23597573  0.63224660  1
  Au  Au180  1  0.50001811  0.23520492  0.36725770  1
  Au  Au181  1  0.50001449  0.76419024  0.36769526  1
  Au  Au182  1  0.63307004  0.76457818  0.50003157  1
  Au  Au183  1  0.36702704  0.76426880  0.50002093  1
  Au  Au184  1  0.63298260  0.23612436  0.50000277  1
  Au  Au185  1  0.36720425  0.23612057  0.50001964  1
  Au  Au186  1  0.49995580  0.63261233  0.76411984  1
  Au  Au187  1  0.49997992  0.36759427  0.76423611  1
  Au  Au188  1  0.50016155  0.36767090  0.23596759  1
  Au  Au189  1  0.50012134  0.63244198  0.23610565  1
  Au  Au190  1  0.36689241  0.50007356  0.76364849  1
  Au  Au191  1  0.63279398  0.50008299  0.76449503  1
  Au  Au192  1  0.63303604  0.50009177  0.23513971  1
  Au  Au193  1  0.36709295  0.50009379  0.23506847  1
  Au  Au194  1  0.23491129  0.50028712  0.63240839  1
  Au  Au195  1  0.76483623  0.49975810  0.63292044  1
  Au  Au196  1  0.76510386  0.50034669  0.36631566  1
  Au  Au197  1  0.23499462  0.50012508  0.36595833  1
  Au  Au198  1  0.76480477  0.63248106  0.49993851  1
  Au  Au199  1  0.76662605  0.36793616  0.49702813  1
  Au  Au200  1  0.23512512  0.63200474  0.49927360  1
  Au  Au201  1  0.23368119  0.36816265  0.49699254  1
  Au  Au202  1  0.36801366  0.69853757  0.69853096  1
  Au  Au203  1  0.63107688  0.69912228  0.69899350  1
  Au  Au204  1  0.36942132  0.30109511  0.69961784  1
  Au  Au205  1  0.63012513  0.30117035  0.70003331  1
  Au  Au206  1  0.69923591  0.36902377  0.30069847  1
  Au  Au207  1  0.30085184  0.36901938  0.30063953  1
  Au  Au208  1  0.69926164  0.63094721  0.30124698  1
  Au  Au209  1  0.30058122  0.63093831  0.30086205  1
  Au  Au210  1  0.69939005  0.30078889  0.36901807  1
  Au  Au211  1  0.30071517  0.30080105  0.36898326  1
  Au  Au212  1  0.69938730  0.69926716  0.36911018  1
  Au  Au213  1  0.30054403  0.69918579  0.36907194  1
  Au  Au214  1  0.63062048  0.30106162  0.30109263  1
  Au  Au215  1  0.36917340  0.30080466  0.30063927  1
  Au  Au216  1  0.63084421  0.69926375  0.30087906  1
  Au  Au217  1  0.36912225  0.69927314  0.30116258  1
  Au  Au218  1  0.29930232  0.69759015  0.62982734  1
  Au  Au219  1  0.69945536  0.69895452  0.63081622  1
  Au  Au220  1  0.30010445  0.30134473  0.63404059  1
  Au  Au221  1  0.69935848  0.30145973  0.63429508  1
  Au  Au222  1  0.29997307  0.62964071  0.69883294  1
  Au  Au223  1  0.69942116  0.63080351  0.69896733  1
  Au  Au224  1  0.30107057  0.36977013  0.70109382  1
  Au  Au225  1  0.69871345  0.36966800  0.70133431  1
  Au  Au226  1  0.36771948  0.76085913  0.63027160  1
  Au  Au227  1  0.63115582  0.76152499  0.63081665  1
  Au  Au228  1  0.36812753  0.23916739  0.63014319  1
  Au  Au229  1  0.63105723  0.23890782  0.63090354  1
  Au  Au230  1  0.63126051  0.23828185  0.36912466  1
  Au  Au231  1  0.36897791  0.23828543  0.36866210  1
  Au  Au232  1  0.63119890  0.76172659  0.36932388  1
  Au  Au233  1  0.36873958  0.76179158  0.36931216  1
  Au  Au234  1  0.36865449  0.63066192  0.76129994  1
  Au  Au235  1  0.63117675  0.63109603  0.76153231  1
  Au  Au236  1  0.36971818  0.36932334  0.76233795  1
  Au  Au237  1  0.63006020  0.36950286  0.76275922  1
  Au  Au238  1  0.63071575  0.36916397  0.23841298  1
  Au  Au239  1  0.36933719  0.36916198  0.23829603  1
  Au  Au240  1  0.63104224  0.63102475  0.23851958  1
  Au  Au241  1  0.36903101  0.63127018  0.23848702  1
  Au  Au242  1  0.23375760  0.62998788  0.63218809  1
  Au  Au243  1  0.76216714  0.63088246  0.63082541  1
  Au  Au244  1  0.23633272  0.37169917  0.63630924  1
  Au  Au245  1  0.76325512  0.37210973  0.63632291  1
  Au  Au246  1  0.76203656  0.36887728  0.36869893  1
  Au  Au247  1  0.23810508  0.36894029  0.36864700  1
  Au  Au248  1  0.76198601  0.63108615  0.36940375  1
  Au  Au249  1  0.23800652  0.63105119  0.36938540  1
