# generated using pymatgen
data_HPt133Au116
_symmetry_space_group_name_H-M   'P 1'
_cell_length_a   30.00000000
_cell_length_b   30.00000000
_cell_length_c   30.00000000
_cell_angle_alpha   90.00000000
_cell_angle_beta   90.00000000
_cell_angle_gamma   90.00000000
_symmetry_Int_Tables_number   1
_chemical_formula_structural   HPt133Au116
_chemical_formula_sum   'H1 Pt133 Au116'
_cell_volume   27000.00000000
_cell_formula_units_Z   1
loop_
 _symmetry_equiv_pos_site_id
 _symmetry_equiv_pos_as_xyz
  1  'x, y, z'
loop_
 _atom_site_type_symbol
 _atom_site_label
 _atom_site_symmetry_multiplicity
 _atom_site_fract_x
 _atom_site_fract_y
 _atom_site_fract_z
 _atom_site_occupancy
  H  H0  1  0.17264856  0.56661612  0.43598611  1
  Pt  Pt1  1  0.50017408  0.50006239  0.50024227  1
  Pt  Pt2  1  0.50010486  0.56545105  0.56507382  1
  Pt  Pt3  1  0.50000575  0.43482468  0.56523296  1
  Pt  Pt4  1  0.50006462  0.43516713  0.43480939  1
  Pt  Pt5  1  0.50019064  0.56516919  0.43505553  1
  Pt  Pt6  1  0.56552431  0.50001985  0.43495215  1
  Pt  Pt7  1  0.43481937  0.49994689  0.43499624  1
  Pt  Pt8  1  0.43466656  0.50001779  0.56527491  1
  Pt  Pt9  1  0.56550838  0.49996212  0.56525363  1
  Pt  Pt10  1  0.43445615  0.43480096  0.50016178  1
  Pt  Pt11  1  0.56561010  0.43476856  0.50015835  1
  Pt  Pt12  1  0.43461441  0.56497014  0.50015283  1
  Pt  Pt13  1  0.56573872  0.56502352  0.50006260  1
  Pt  Pt14  1  0.50003222  0.50004129  0.63189263  1
  Pt  Pt15  1  0.50016823  0.50022470  0.36780629  1
  Pt  Pt16  1  0.50016887  0.63216117  0.49997220  1
  Pt  Pt17  1  0.49997671  0.36806424  0.49995496  1
  Pt  Pt18  1  0.63289776  0.49948036  0.50026523  1
  Pt  Pt19  1  0.36709317  0.49957160  0.50023877  1
  Pt  Pt20  1  0.56527961  0.43507053  0.36902508  1
  Pt  Pt21  1  0.43484447  0.43517462  0.36910812  1
  Pt  Pt22  1  0.56541920  0.56509994  0.36905973  1
  Pt  Pt23  1  0.43496457  0.56509138  0.36917069  1
  Pt  Pt24  1  0.56477929  0.36910353  0.43461051  1
  Pt  Pt25  1  0.43525777  0.36896611  0.43449397  1
  Pt  Pt26  1  0.56558624  0.63090406  0.43506315  1
  Pt  Pt27  1  0.43482083  0.63079214  0.43508495  1
  Pt  Pt28  1  0.43459505  0.56507086  0.63092502  1
  Pt  Pt29  1  0.56545062  0.56495470  0.63084129  1
  Pt  Pt30  1  0.43450392  0.43482995  0.63071403  1
  Pt  Pt31  1  0.56553319  0.43480009  0.63063590  1
  Pt  Pt32  1  0.43460405  0.63085535  0.56484305  1
  Pt  Pt33  1  0.56554775  0.63092675  0.56493584  1
  Pt  Pt34  1  0.43458008  0.36886936  0.56501371  1
  Pt  Pt35  1  0.56543767  0.36895981  0.56500369  1
  Pt  Pt36  1  0.36851583  0.56483044  0.56501943  1
  Pt  Pt37  1  0.63163551  0.56486143  0.56495289  1
  Pt  Pt38  1  0.36791824  0.43414312  0.56492078  1
  Pt  Pt39  1  0.63216678  0.43403421  0.56498232  1
  Pt  Pt40  1  0.63138173  0.43494210  0.43503172  1
  Pt  Pt41  1  0.36871325  0.43493881  0.43507576  1
  Pt  Pt42  1  0.63147088  0.56487662  0.43492189  1
  Pt  Pt43  1  0.36925204  0.56471013  0.43502571  1
  Pt  Pt44  1  0.50000740  0.63140642  0.63117348  1
  Pt  Pt45  1  0.49998068  0.36868767  0.63148738  1
  Pt  Pt46  1  0.50001262  0.36839353  0.36841747  1
  Pt  Pt47  1  0.50023509  0.63143602  0.36873199  1
  Pt  Pt48  1  0.36785724  0.49966041  0.63108931  1
  Pt  Pt49  1  0.63212230  0.49962127  0.63115935  1
  Pt  Pt50  1  0.63185589  0.49996188  0.36837839  1
  Pt  Pt51  1  0.36813474  0.50006635  0.36852667  1
  Pt  Pt52  1  0.63198331  0.63149908  0.49993115  1
  Pt  Pt53  1  0.36810388  0.63133582  0.49984248  1
  Pt  Pt54  1  0.63191135  0.36842192  0.49980450  1
  Pt  Pt55  1  0.36804943  0.36850743  0.49979489  1
  Pt  Pt56  1  0.49995374  0.69756319  0.56536999  1
  Pt  Pt57  1  0.49996487  0.30239956  0.56534430  1
  Pt  Pt58  1  0.49988823  0.30197699  0.43444232  1
  Pt  Pt59  1  0.50022848  0.69754839  0.43473943  1
  Pt  Pt60  1  0.56581414  0.50010854  0.30213579  1
  Pt  Pt61  1  0.43431759  0.50015009  0.30236647  1
  Pt  Pt62  1  0.49982474  0.56546373  0.69742494  1
  Pt  Pt63  1  0.50000407  0.43472931  0.69759584  1
  Pt  Pt64  1  0.43437283  0.30249003  0.49989495  1
  Pt  Pt65  1  0.56565762  0.30254646  0.49985590  1
  Pt  Pt66  1  0.43416938  0.69768872  0.50001721  1
  Pt  Pt67  1  0.56585175  0.69791864  0.50007171  1
  Pt  Pt68  1  0.50001017  0.43473030  0.30222530  1
  Pt  Pt69  1  0.50024952  0.56553277  0.30228258  1
  Pt  Pt70  1  0.43431751  0.49998231  0.69747018  1
  Pt  Pt71  1  0.56568041  0.50005392  0.69742450  1
  Pt  Pt72  1  0.69861330  0.50002813  0.43435024  1
  Pt  Pt73  1  0.30111453  0.50090508  0.43434684  1
  Pt  Pt74  1  0.30128223  0.49969574  0.56534861  1
  Pt  Pt75  1  0.69877089  0.49928305  0.56548325  1
  Pt  Pt76  1  0.30120765  0.43437271  0.49930078  1
  Pt  Pt77  1  0.30145229  0.56507728  0.49906903  1
  Pt  Pt78  1  0.69877607  0.43411499  0.49967751  1
  Pt  Pt79  1  0.69843348  0.56502588  0.49986461  1
  Pt  Pt80  1  0.36888968  0.63054469  0.63014734  1
  Pt  Pt81  1  0.63103876  0.63043018  0.63046202  1
  Pt  Pt82  1  0.36908294  0.36927153  0.63054131  1
  Pt  Pt83  1  0.63099068  0.36926886  0.63060185  1
  Pt  Pt84  1  0.63082366  0.36962643  0.36945217  1
  Pt  Pt85  1  0.36916166  0.36989320  0.36937085  1
  Pt  Pt86  1  0.63100289  0.63054001  0.36945091  1
  Pt  Pt87  1  0.36920764  0.63047736  0.36950303  1
  Pt  Pt88  1  0.56481159  0.36791915  0.30282328  1
  Pt  Pt89  1  0.43510532  0.36806622  0.30287464  1
  Pt  Pt90  1  0.56506696  0.63231429  0.30274677  1
  Pt  Pt91  1  0.43520331  0.63205633  0.30288757  1
  Pt  Pt92  1  0.56483753  0.30237674  0.36765168  1
  Pt  Pt93  1  0.43516453  0.30226836  0.36744479  1
  Pt  Pt94  1  0.56514015  0.69733246  0.36800334  1
  Pt  Pt95  1  0.43516296  0.69714686  0.36823327  1
  Pt  Pt96  1  0.43490492  0.69719711  0.63184872  1
  Pt  Pt97  1  0.56496129  0.69726004  0.63192662  1
  Pt  Pt98  1  0.43494812  0.30272628  0.63206738  1
  Pt  Pt99  1  0.56505602  0.30275776  0.63198440  1
  Pt  Pt100  1  0.36743333  0.69732351  0.56462683  1
  Pt  Pt101  1  0.63259978  0.69729486  0.56477479  1
  Pt  Pt102  1  0.36709634  0.30320171  0.56462768  1
  Pt  Pt103  1  0.63289600  0.30323703  0.56473988  1
  Pt  Pt104  1  0.63206330  0.30280252  0.43467668  1
  Pt  Pt105  1  0.36788223  0.30293247  0.43465537  1
  Pt  Pt106  1  0.63273209  0.69736387  0.43527545  1
  Pt  Pt107  1  0.36765218  0.69726319  0.43524609  1
  Pt  Pt108  1  0.36745402  0.56478094  0.69720352  1
  Pt  Pt109  1  0.63244586  0.56474882  0.69736742  1
  Pt  Pt110  1  0.36786791  0.43523727  0.69727396  1
  Pt  Pt111  1  0.63211850  0.43514842  0.69726819  1
  Pt  Pt112  1  0.43484379  0.63208922  0.69712891  1
  Pt  Pt113  1  0.56509400  0.63190225  0.69699343  1
  Pt  Pt114  1  0.43528368  0.36793111  0.69739290  1
  Pt  Pt115  1  0.56469824  0.36801185  0.69739541  1
  Pt  Pt116  1  0.69803161  0.43559561  0.36766383  1
  Pt  Pt117  1  0.30215597  0.43570570  0.36768326  1
  Pt  Pt118  1  0.69784763  0.56473809  0.36778980  1
  Pt  Pt119  1  0.30226965  0.56486117  0.36916305  1
  Pt  Pt120  1  0.69763271  0.36822086  0.43450431  1
  Pt  Pt121  1  0.30236535  0.36814023  0.43458480  1
  Pt  Pt122  1  0.69776829  0.63217961  0.43523763  1
  Pt  Pt123  1  0.30251070  0.63075231  0.43508584  1
  Pt  Pt124  1  0.63251096  0.43521654  0.30268668  1
  Pt  Pt125  1  0.36756735  0.43539316  0.30269060  1
  Pt  Pt126  1  0.63260294  0.56482632  0.30259320  1
  Pt  Pt127  1  0.36772480  0.56475767  0.30276632  1
  Pt  Pt128  1  0.30227415  0.56465310  0.63213716  1
  Pt  Pt129  1  0.30214879  0.43523550  0.63286021  1
  Pt  Pt130  1  0.69774637  0.56461019  0.63202773  1
  Pt  Pt131  1  0.69789009  0.43514536  0.63292017  1
  Pt  Pt132  1  0.30227769  0.63196842  0.56450543  1
  Pt  Pt133  1  0.69778234  0.63192305  0.56466835  1
  Au  Au134  1  0.29740962  0.36504206  0.56528885  1
  Au  Au135  1  0.70273581  0.36497938  0.56538036  1
  Au  Au136  1  0.49990838  0.76860307  0.50003764  1
  Au  Au137  1  0.50003306  0.23083710  0.49990126  1
  Au  Au138  1  0.50000878  0.50038889  0.76866514  1
  Au  Au139  1  0.49989383  0.50007290  0.23136119  1
  Au  Au140  1  0.76985584  0.49955628  0.50017385  1
  Au  Au141  1  0.23025566  0.49975052  0.50003544  1
  Au  Au142  1  0.56591317  0.23200150  0.43412168  1
  Au  Au143  1  0.43401601  0.23213581  0.43404738  1
  Au  Au144  1  0.56606764  0.76799704  0.43428684  1
  Au  Au145  1  0.43410476  0.76817208  0.43433386  1
  Au  Au146  1  0.43400822  0.76821195  0.56569682  1
  Au  Au147  1  0.56595085  0.76805228  0.56577112  1
  Au  Au148  1  0.43411774  0.23226181  0.56578695  1
  Au  Au149  1  0.56591959  0.23228986  0.56572412  1
  Au  Au150  1  0.49992293  0.70019873  0.70028359  1
  Au  Au151  1  0.50003801  0.29947764  0.70034982  1
  Au  Au152  1  0.49999772  0.29918073  0.29945186  1
  Au  Au153  1  0.49997755  0.70049220  0.29972391  1
  Au  Au154  1  0.70103710  0.50009053  0.29903239  1
  Au  Au155  1  0.29906749  0.50071769  0.29912080  1
  Au  Au156  1  0.56591816  0.43421933  0.23204523  1
  Au  Au157  1  0.43411126  0.43429387  0.23185608  1
  Au  Au158  1  0.56602226  0.56591448  0.23198432  1
  Au  Au159  1  0.43419462  0.56591168  0.23185142  1
  Au  Au160  1  0.43389658  0.56595957  0.76769057  1
  Au  Au161  1  0.56591977  0.56588538  0.76787048  1
  Au  Au162  1  0.43421435  0.43453996  0.76818590  1
  Au  Au163  1  0.56577080  0.43462457  0.76822735  1
  Au  Au164  1  0.29861853  0.29890475  0.49791484  1
  Au  Au165  1  0.29901381  0.70047680  0.49942743  1
  Au  Au166  1  0.70137338  0.29915588  0.49781421  1
  Au  Au167  1  0.70119309  0.70072072  0.50027094  1
  Au  Au168  1  0.23168136  0.56559904  0.56587408  1
  Au  Au169  1  0.23101557  0.43378909  0.56593770  1
  Au  Au170  1  0.76851021  0.56557211  0.56579873  1
  Au  Au171  1  0.76942947  0.43353543  0.56609048  1
  Au  Au172  1  0.76912533  0.43530336  0.43305963  1
  Au  Au173  1  0.76858814  0.56571365  0.43423293  1
  Au  Au174  1  0.23091679  0.43517426  0.43303453  1
  Au  Au175  1  0.22567582  0.56593460  0.43382433  1
  Au  Au176  1  0.29905453  0.50048504  0.70103761  1
  Au  Au177  1  0.70094580  0.50055090  0.70097297  1
  Au  Au178  1  0.49994450  0.76409560  0.63235912  1
  Au  Au179  1  0.49999599  0.23584065  0.63245388  1
  Au  Au180  1  0.50005319  0.23505893  0.36750162  1
  Au  Au181  1  0.50003444  0.76409570  0.36771134  1
  Au  Au182  1  0.63296282  0.76432376  0.50001000  1
  Au  Au183  1  0.36708440  0.76426159  0.49999490  1
  Au  Au184  1  0.63285351  0.23618220  0.50004640  1
  Au  Au185  1  0.36732707  0.23610053  0.50005629  1
  Au  Au186  1  0.50005242  0.63235678  0.76412263  1
  Au  Au187  1  0.49998828  0.36769043  0.76408982  1
  Au  Au188  1  0.49997496  0.36740392  0.23590617  1
  Au  Au189  1  0.50001529  0.63263493  0.23586197  1
  Au  Au190  1  0.36714242  0.50000841  0.76433345  1
  Au  Au191  1  0.63282775  0.50000568  0.76435152  1
  Au  Au192  1  0.63286064  0.49995342  0.23559392  1
  Au  Au193  1  0.36732737  0.50006307  0.23577917  1
  Au  Au194  1  0.23515539  0.49984950  0.63294966  1
  Au  Au195  1  0.76485891  0.49973571  0.63284179  1
  Au  Au196  1  0.76531430  0.50070319  0.36652964  1
  Au  Au197  1  0.23521142  0.50019890  0.36647179  1
  Au  Au198  1  0.76478198  0.63250138  0.49997563  1
  Au  Au199  1  0.76648432  0.36824259  0.49691433  1
  Au  Au200  1  0.23566139  0.63229399  0.50038571  1
  Au  Au201  1  0.23352199  0.36812411  0.49694592  1
  Au  Au202  1  0.36854871  0.69880905  0.69860511  1
  Au  Au203  1  0.63121967  0.69877377  0.69872819  1
  Au  Au204  1  0.36949145  0.30106240  0.69959495  1
  Au  Au205  1  0.63052521  0.30109661  0.69954818  1
  Au  Au206  1  0.69948595  0.36915148  0.30119501  1
  Au  Au207  1  0.30047853  0.36924201  0.30089982  1
  Au  Au208  1  0.69972216  0.63071183  0.30095258  1
  Au  Au209  1  0.30065199  0.63064710  0.30144228  1
  Au  Au210  1  0.69961650  0.30061931  0.36913819  1
  Au  Au211  1  0.30041233  0.30069777  0.36907685  1
  Au  Au212  1  0.69983800  0.69916302  0.36929747  1
  Au  Au213  1  0.30060948  0.69878964  0.36936327  1
  Au  Au214  1  0.63116982  0.30119281  0.30129096  1
  Au  Au215  1  0.36871600  0.30141670  0.30119996  1
  Au  Au216  1  0.63143781  0.69894712  0.30128436  1
  Au  Au217  1  0.36926401  0.69908865  0.30113513  1
  Au  Au218  1  0.30030316  0.69905308  0.63065784  1
  Au  Au219  1  0.69963647  0.69887265  0.63070486  1
  Au  Au220  1  0.30006846  0.30129457  0.63389324  1
  Au  Au221  1  0.69992795  0.30121174  0.63392810  1
  Au  Au222  1  0.30031680  0.63072285  0.69898857  1
  Au  Au223  1  0.69965130  0.63066997  0.69897472  1
  Au  Au224  1  0.30096049  0.36958219  0.70059215  1
  Au  Au225  1  0.69903912  0.36959067  0.70079428  1
  Au  Au226  1  0.36882189  0.76147254  0.63069777  1
  Au  Au227  1  0.63115637  0.76148144  0.63076494  1
  Au  Au228  1  0.36809126  0.23920734  0.63008740  1
  Au  Au229  1  0.63184290  0.23920109  0.63014875  1
  Au  Au230  1  0.63132156  0.23823796  0.36898104  1
  Au  Au231  1  0.36870378  0.23828518  0.36885457  1
  Au  Au232  1  0.63131299  0.76156725  0.36922693  1
  Au  Au233  1  0.36885345  0.76143178  0.36928734  1
  Au  Au234  1  0.36878926  0.63102362  0.76147445  1
  Au  Au235  1  0.63113114  0.63091144  0.76145697  1
  Au  Au236  1  0.36970917  0.36924239  0.76203522  1
  Au  Au237  1  0.63030340  0.36924366  0.76207624  1
  Au  Au238  1  0.63104870  0.36921243  0.23853748  1
  Au  Au239  1  0.36893189  0.36934313  0.23846813  1
  Au  Au240  1  0.63118645  0.63098744  0.23851803  1
  Au  Au241  1  0.36881407  0.63079714  0.23874736  1
  Au  Au242  1  0.23797202  0.63081683  0.63063884  1
  Au  Au243  1  0.76213300  0.63061257  0.63084315  1
  Au  Au244  1  0.23635586  0.37189695  0.63547310  1
  Au  Au245  1  0.76355108  0.37182496  0.63573498  1
  Au  Au246  1  0.76223298  0.36890725  0.36917013  1
  Au  Au247  1  0.23793326  0.36909939  0.36899364  1
  Au  Au248  1  0.76219420  0.63080471  0.36929840  1
  Au  Au249  1  0.23794308  0.63121576  0.36907780  1
