# generated using pymatgen
data_HPt133Au116
_symmetry_space_group_name_H-M   'P 1'
_cell_length_a   30.00000000
_cell_length_b   30.00000000
_cell_length_c   30.00000000
_cell_angle_alpha   90.00000000
_cell_angle_beta   90.00000000
_cell_angle_gamma   90.00000000
_symmetry_Int_Tables_number   1
_chemical_formula_structural   HPt133Au116
_chemical_formula_sum   'H1 Pt133 Au116'
_cell_volume   27000.00000000
_cell_formula_units_Z   1
loop_
 _symmetry_equiv_pos_site_id
 _symmetry_equiv_pos_as_xyz
  1  'x, y, z'
loop_
 _atom_site_type_symbol
 _atom_site_label
 _atom_site_symmetry_multiplicity
 _atom_site_fract_x
 _atom_site_fract_y
 _atom_site_fract_z
 _atom_site_occupancy
  H  H0  1  0.18992418  0.66228750  0.49888780  1
  Pt  Pt1  1  0.50010214  0.50019169  0.50021692  1
  Pt  Pt2  1  0.50002183  0.56537131  0.56501595  1
  Pt  Pt3  1  0.50000101  0.43505936  0.56520388  1
  Pt  Pt4  1  0.49999455  0.43537693  0.43473656  1
  Pt  Pt5  1  0.49999413  0.56511570  0.43505803  1
  Pt  Pt6  1  0.56556838  0.49999077  0.43501013  1
  Pt  Pt7  1  0.43422048  0.50021847  0.43530849  1
  Pt  Pt8  1  0.43428219  0.50019627  0.56486807  1
  Pt  Pt9  1  0.56551276  0.49993760  0.56516376  1
  Pt  Pt10  1  0.43494549  0.43445699  0.50010468  1
  Pt  Pt11  1  0.56557450  0.43462572  0.50010238  1
  Pt  Pt12  1  0.43424976  0.56521966  0.50009263  1
  Pt  Pt13  1  0.56575429  0.56503853  0.50010364  1
  Pt  Pt14  1  0.49985636  0.50016896  0.63173059  1
  Pt  Pt15  1  0.49982932  0.50033795  0.36803296  1
  Pt  Pt16  1  0.50002405  0.63195904  0.49991507  1
  Pt  Pt17  1  0.50043270  0.36778598  0.49990714  1
  Pt  Pt18  1  0.63291136  0.49942816  0.50027496  1
  Pt  Pt19  1  0.36673136  0.49993267  0.50023305  1
  Pt  Pt20  1  0.56519324  0.43519133  0.36895275  1
  Pt  Pt21  1  0.43469229  0.43525533  0.36921591  1
  Pt  Pt22  1  0.56537103  0.56500932  0.36907097  1
  Pt  Pt23  1  0.43461430  0.56499589  0.36909013  1
  Pt  Pt24  1  0.56491912  0.36909094  0.43440316  1
  Pt  Pt25  1  0.43529637  0.36909649  0.43465689  1
  Pt  Pt26  1  0.56558680  0.63079662  0.43508476  1
  Pt  Pt27  1  0.43438646  0.63081281  0.43500164  1
  Pt  Pt28  1  0.43456453  0.56496837  0.63077366  1
  Pt  Pt29  1  0.56552574  0.56491984  0.63079758  1
  Pt  Pt30  1  0.43444633  0.43495045  0.63052636  1
  Pt  Pt31  1  0.56550259  0.43486935  0.63075073  1
  Pt  Pt32  1  0.43450244  0.63089692  0.56493797  1
  Pt  Pt33  1  0.56548928  0.63092774  0.56485718  1
  Pt  Pt34  1  0.43471545  0.36893854  0.56491218  1
  Pt  Pt35  1  0.56552424  0.36891178  0.56509541  1
  Pt  Pt36  1  0.36799351  0.56507695  0.56479174  1
  Pt  Pt37  1  0.63173602  0.56477466  0.56499413  1
  Pt  Pt38  1  0.36782408  0.43434844  0.56460951  1
  Pt  Pt39  1  0.63227515  0.43401107  0.56511702  1
  Pt  Pt40  1  0.63151542  0.43493141  0.43495682  1
  Pt  Pt41  1  0.36846505  0.43516692  0.43540803  1
  Pt  Pt42  1  0.63154440  0.56474654  0.43492743  1
  Pt  Pt43  1  0.36819589  0.56504578  0.43511419  1
  Pt  Pt44  1  0.50004867  0.63122331  0.63111186  1
  Pt  Pt45  1  0.50003050  0.36886892  0.63132175  1
  Pt  Pt46  1  0.49997872  0.36846124  0.36865137  1
  Pt  Pt47  1  0.50000056  0.63118770  0.36892922  1
  Pt  Pt48  1  0.36803022  0.49981236  0.63100363  1
  Pt  Pt49  1  0.63197178  0.49967123  0.63119697  1
  Pt  Pt50  1  0.63175731  0.50005454  0.36839137  1
  Pt  Pt51  1  0.36816822  0.50006544  0.36859311  1
  Pt  Pt52  1  0.63199913  0.63128530  0.49991349  1
  Pt  Pt53  1  0.36810853  0.63135527  0.49991721  1
  Pt  Pt54  1  0.63184218  0.36851455  0.49980660  1
  Pt  Pt55  1  0.36810949  0.36849382  0.49981318  1
  Pt  Pt56  1  0.49994490  0.69757683  0.56519319  1
  Pt  Pt57  1  0.50005886  0.30219634  0.56554999  1
  Pt  Pt58  1  0.49998950  0.30160635  0.43439245  1
  Pt  Pt59  1  0.49992424  0.69740276  0.43481087  1
  Pt  Pt60  1  0.56582482  0.50014168  0.30226377  1
  Pt  Pt61  1  0.43412580  0.50010473  0.30219504  1
  Pt  Pt62  1  0.50006370  0.56526553  0.69748501  1
  Pt  Pt63  1  0.49994468  0.43482726  0.69746448  1
  Pt  Pt64  1  0.43454892  0.30256823  0.49988831  1
  Pt  Pt65  1  0.56537143  0.30273815  0.49990076  1
  Pt  Pt66  1  0.43405801  0.69767583  0.50004670  1
  Pt  Pt67  1  0.56583263  0.69768263  0.50004713  1
  Pt  Pt68  1  0.49990349  0.43492902  0.30232419  1
  Pt  Pt69  1  0.50003006  0.56521279  0.30236084  1
  Pt  Pt70  1  0.43433828  0.50004695  0.69749535  1
  Pt  Pt71  1  0.56567552  0.50002205  0.69745915  1
  Pt  Pt72  1  0.69861970  0.50002794  0.43418692  1
  Pt  Pt73  1  0.30133074  0.50058135  0.43460551  1
  Pt  Pt74  1  0.30117643  0.49992737  0.56498481  1
  Pt  Pt75  1  0.69881095  0.49934685  0.56555201  1
  Pt  Pt76  1  0.30098827  0.43418208  0.49961921  1
  Pt  Pt77  1  0.29977420  0.56705453  0.49984427  1
  Pt  Pt78  1  0.69874382  0.43409949  0.49968308  1
  Pt  Pt79  1  0.69853612  0.56502380  0.49992292  1
  Pt  Pt80  1  0.36922692  0.63041792  0.63083329  1
  Pt  Pt81  1  0.63098266  0.63054114  0.63040831  1
  Pt  Pt82  1  0.36913322  0.36931986  0.63037158  1
  Pt  Pt83  1  0.63102764  0.36927324  0.63071978  1
  Pt  Pt84  1  0.63080289  0.36968351  0.36921920  1
  Pt  Pt85  1  0.36931694  0.36974347  0.36955804  1
  Pt  Pt86  1  0.63101404  0.63048788  0.36939454  1
  Pt  Pt87  1  0.36918363  0.63040988  0.36900195  1
  Pt  Pt88  1  0.56473825  0.36801013  0.30289412  1
  Pt  Pt89  1  0.43521755  0.36810692  0.30289523  1
  Pt  Pt90  1  0.56499158  0.63203932  0.30292004  1
  Pt  Pt91  1  0.43495913  0.63211353  0.30284290  1
  Pt  Pt92  1  0.56471952  0.30232165  0.36760207  1
  Pt  Pt93  1  0.43517616  0.30249120  0.36768399  1
  Pt  Pt94  1  0.56498322  0.69715149  0.36823340  1
  Pt  Pt95  1  0.43485193  0.69706893  0.36814372  1
  Pt  Pt96  1  0.43496660  0.69711524  0.63182873  1
  Pt  Pt97  1  0.56493144  0.69718887  0.63182261  1
  Pt  Pt98  1  0.43496259  0.30285472  0.63198526  1
  Pt  Pt99  1  0.56504771  0.30274589  0.63213705  1
  Pt  Pt100  1  0.36727941  0.69722791  0.56482215  1
  Pt  Pt101  1  0.63255878  0.69737385  0.56475563  1
  Pt  Pt102  1  0.36715732  0.30333999  0.56464747  1
  Pt  Pt103  1  0.63285383  0.30334202  0.56488498  1
  Pt  Pt104  1  0.63191012  0.30286328  0.43450949  1
  Pt  Pt105  1  0.36796539  0.30287820  0.43478069  1
  Pt  Pt106  1  0.63268646  0.69735652  0.43529432  1
  Pt  Pt107  1  0.36720785  0.69727548  0.43520641  1
  Pt  Pt108  1  0.36751112  0.56463137  0.69735236  1
  Pt  Pt109  1  0.63246442  0.56480199  0.69732537  1
  Pt  Pt110  1  0.36809317  0.43527145  0.69721844  1
  Pt  Pt111  1  0.63207190  0.43527905  0.69738564  1
  Pt  Pt112  1  0.43494506  0.63193910  0.69713011  1
  Pt  Pt113  1  0.56504131  0.63188948  0.69704084  1
  Pt  Pt114  1  0.43520068  0.36809820  0.69731284  1
  Pt  Pt115  1  0.56471461  0.36807970  0.69745450  1
  Pt  Pt116  1  0.69793800  0.43548912  0.36750066  1
  Pt  Pt117  1  0.30231028  0.43554070  0.36781769  1
  Pt  Pt118  1  0.69792988  0.56476276  0.36761510  1
  Pt  Pt119  1  0.30218485  0.56462400  0.36729195  1
  Pt  Pt120  1  0.69767321  0.36829247  0.43438083  1
  Pt  Pt121  1  0.30238723  0.36815252  0.43458498  1
  Pt  Pt122  1  0.69769833  0.63210548  0.43519471  1
  Pt  Pt123  1  0.30215635  0.63173738  0.43483449  1
  Pt  Pt124  1  0.63240052  0.43525903  0.30255111  1
  Pt  Pt125  1  0.36769622  0.43523645  0.30271060  1
  Pt  Pt126  1  0.63258407  0.56487198  0.30245098  1
  Pt  Pt127  1  0.36741530  0.56465105  0.30236507  1
  Pt  Pt128  1  0.30218524  0.56456883  0.63251138  1
  Pt  Pt129  1  0.30261979  0.43512609  0.63254221  1
  Pt  Pt130  1  0.69779519  0.56466977  0.63212205  1
  Pt  Pt131  1  0.69791782  0.43510449  0.63308640  1
  Pt  Pt132  1  0.30202758  0.63163087  0.56504110  1
  Pt  Pt133  1  0.69777878  0.63198027  0.56470658  1
  Au  Au134  1  0.29730095  0.36491697  0.56534600  1
  Au  Au135  1  0.70287401  0.36490834  0.56548110  1
  Au  Au136  1  0.50002642  0.76859252  0.50001900  1
  Au  Au137  1  0.50009721  0.23094744  0.50008067  1
  Au  Au138  1  0.50000988  0.50026382  0.76861772  1
  Au  Au139  1  0.50002942  0.50009583  0.23125138  1
  Au  Au140  1  0.76983864  0.49956882  0.50017689  1
  Au  Au141  1  0.23009478  0.50001403  0.50006715  1
  Au  Au142  1  0.56583769  0.23195639  0.43403855  1
  Au  Au143  1  0.43400608  0.23195870  0.43403314  1
  Au  Au144  1  0.56597046  0.76790125  0.43433492  1
  Au  Au145  1  0.43379632  0.76782933  0.43449540  1
  Au  Au146  1  0.43383134  0.76792680  0.56550515  1
  Au  Au147  1  0.56591877  0.76804446  0.56574652  1
  Au  Au148  1  0.43413577  0.23224544  0.56584038  1
  Au  Au149  1  0.56585566  0.23220284  0.56602146  1
  Au  Au150  1  0.50004345  0.70033682  0.70019120  1
  Au  Au151  1  0.49998012  0.29959028  0.70025758  1
  Au  Au152  1  0.49996761  0.29926809  0.29944312  1
  Au  Au153  1  0.50007083  0.70033881  0.30000373  1
  Au  Au154  1  0.70097363  0.50010927  0.29898499  1
  Au  Au155  1  0.29919072  0.49979099  0.29870397  1
  Au  Au156  1  0.56590681  0.43424979  0.23207476  1
  Au  Au157  1  0.43412744  0.43424356  0.23195864  1
  Au  Au158  1  0.56594944  0.56576522  0.23196754  1
  Au  Au159  1  0.43396320  0.56568321  0.23191149  1
  Au  Au160  1  0.43392900  0.56574322  0.76800411  1
  Au  Au161  1  0.56599361  0.56577071  0.76790925  1
  Au  Au162  1  0.43428938  0.43458712  0.76828497  1
  Au  Au163  1  0.56572347  0.43456570  0.76830066  1
  Au  Au164  1  0.29865122  0.29901856  0.49788511  1
  Au  Au165  1  0.29860990  0.69909731  0.50026885  1
  Au  Au166  1  0.70103498  0.29945691  0.49766662  1
  Au  Au167  1  0.70111020  0.70069753  0.50026188  1
  Au  Au168  1  0.23115854  0.56503677  0.56716075  1
  Au  Au169  1  0.23071719  0.43348253  0.56572105  1
  Au  Au170  1  0.76850677  0.56562871  0.56587488  1
  Au  Au171  1  0.76922017  0.43355778  0.56618621  1
  Au  Au172  1  0.76905005  0.43528710  0.43305148  1
  Au  Au173  1  0.76859498  0.56557879  0.43409114  1
  Au  Au174  1  0.23098707  0.43538671  0.43312809  1
  Au  Au175  1  0.23097950  0.56495655  0.43280086  1
  Au  Au176  1  0.29924513  0.50026099  0.70112265  1
  Au  Au177  1  0.70092146  0.50053632  0.70094084  1
  Au  Au178  1  0.49975998  0.76402492  0.63221781  1
  Au  Au179  1  0.49988133  0.23579272  0.63268478  1
  Au  Au180  1  0.49981324  0.23516153  0.36712580  1
  Au  Au181  1  0.49968462  0.76392749  0.36790109  1
  Au  Au182  1  0.63292898  0.76435531  0.50000754  1
  Au  Au183  1  0.36634066  0.76390237  0.50003856  1
  Au  Au184  1  0.63220038  0.23665858  0.50026847  1
  Au  Au185  1  0.36743185  0.23641047  0.50016640  1
  Au  Au186  1  0.49982175  0.63230488  0.76373906  1
  Au  Au187  1  0.49985574  0.36776596  0.76391290  1
  Au  Au188  1  0.49997362  0.36750897  0.23601322  1
  Au  Au189  1  0.49979777  0.63235534  0.23623591  1
  Au  Au190  1  0.36715186  0.49998070  0.76444822  1
  Au  Au191  1  0.63286297  0.49998920  0.76440755  1
  Au  Au192  1  0.63291971  0.49990786  0.23553080  1
  Au  Au193  1  0.36713412  0.49978975  0.23529059  1
  Au  Au194  1  0.23558375  0.49878407  0.63320819  1
  Au  Au195  1  0.76487449  0.49974456  0.63292410  1
  Au  Au196  1  0.76522611  0.50039876  0.36625878  1
  Au  Au197  1  0.23512247  0.49999948  0.36573564  1
  Au  Au198  1  0.76468424  0.63247778  0.49991510  1
  Au  Au199  1  0.76649777  0.36826392  0.49695184  1
  Au  Au200  1  0.23243182  0.63055336  0.49983192  1
  Au  Au201  1  0.23345729  0.36790835  0.49686527  1
  Au  Au202  1  0.36906873  0.69919436  0.69912622  1
  Au  Au203  1  0.63113460  0.69888564  0.69870058  1
  Au  Au204  1  0.36944022  0.30114544  0.69954827  1
  Au  Au205  1  0.63053712  0.30112218  0.69954060  1
  Au  Au206  1  0.69939396  0.36913957  0.30111393  1
  Au  Au207  1  0.30063778  0.36918408  0.30118599  1
  Au  Au208  1  0.69944824  0.63097112  0.30082105  1
  Au  Au209  1  0.30066477  0.63093928  0.30067815  1
  Au  Au210  1  0.69961699  0.30064459  0.36915306  1
  Au  Au211  1  0.30050590  0.30079558  0.36907929  1
  Au  Au212  1  0.69943305  0.69915188  0.36911294  1
  Au  Au213  1  0.30065450  0.69876097  0.36901571  1
  Au  Au214  1  0.63100937  0.30111558  0.30132566  1
  Au  Au215  1  0.36904337  0.30139798  0.30108915  1
  Au  Au216  1  0.63093616  0.69924063  0.30113312  1
  Au  Au217  1  0.36902721  0.69933286  0.30078697  1
  Au  Au218  1  0.30064860  0.69873857  0.63093968  1
  Au  Au219  1  0.69966754  0.69900059  0.63070510  1
  Au  Au220  1  0.29998924  0.30141924  0.63396729  1
  Au  Au221  1  0.69996931  0.30135021  0.63409001  1
  Au  Au222  1  0.30052993  0.63087775  0.69935260  1
  Au  Au223  1  0.69957899  0.63077834  0.69900463  1
  Au  Au224  1  0.30103383  0.36989425  0.70079457  1
  Au  Au225  1  0.69902214  0.36979487  0.70091146  1
  Au  Au226  1  0.36890231  0.76151167  0.63075835  1
  Au  Au227  1  0.63111012  0.76150435  0.63073987  1
  Au  Au228  1  0.36799692  0.23926491  0.63007521  1
  Au  Au229  1  0.63212003  0.23914601  0.63012874  1
  Au  Au230  1  0.63139885  0.23816101  0.36917116  1
  Au  Au231  1  0.36873522  0.23836033  0.36899171  1
  Au  Au232  1  0.63105998  0.76158699  0.36928382  1
  Au  Au233  1  0.36884712  0.76154360  0.36915083  1
  Au  Au234  1  0.36894607  0.63093735  0.76148001  1
  Au  Au235  1  0.63110977  0.63100528  0.76143758  1
  Au  Au236  1  0.36968278  0.36922540  0.76215497  1
  Au  Au237  1  0.63027476  0.36920436  0.76214128  1
  Au  Au238  1  0.63103584  0.36918499  0.23853032  1
  Au  Au239  1  0.36892689  0.36929784  0.23845384  1
  Au  Au240  1  0.63094715  0.63113439  0.23851422  1
  Au  Au241  1  0.36895379  0.63089805  0.23845848  1
  Au  Au242  1  0.23788412  0.63079534  0.63138975  1
  Au  Au243  1  0.76215208  0.63078831  0.63075848  1
  Au  Au244  1  0.23658386  0.37223106  0.63593195  1
  Au  Au245  1  0.76365592  0.37165424  0.63593785  1
  Au  Au246  1  0.76230686  0.36885230  0.36909091  1
  Au  Au247  1  0.23789481  0.36915858  0.36915044  1
  Au  Au248  1  0.76200527  0.63100788  0.36934560  1
  Au  Au249  1  0.23791751  0.63082293  0.36866374  1
