# generated using pymatgen
data_Pt133Au116
_symmetry_space_group_name_H-M   'P 1'
_cell_length_a   30.00000000
_cell_length_b   30.00000000
_cell_length_c   30.00000000
_cell_angle_alpha   90.00000000
_cell_angle_beta   90.00000000
_cell_angle_gamma   90.00000000
_symmetry_Int_Tables_number   1
_chemical_formula_structural   Pt133Au116
_chemical_formula_sum   'Pt133 Au116'
_cell_volume   27000.00000000
_cell_formula_units_Z   1
loop_
 _symmetry_equiv_pos_site_id
 _symmetry_equiv_pos_as_xyz
  1  'x, y, z'
loop_
 _atom_site_type_symbol
 _atom_site_label
 _atom_site_symmetry_multiplicity
 _atom_site_fract_x
 _atom_site_fract_y
 _atom_site_fract_z
 _atom_site_occupancy
  Pt  Pt0  1  0.50000967  0.50020561  0.50017214  1
  Pt  Pt1  1  0.50000134  0.56547929  0.56500602  1
  Pt  Pt2  1  0.50000915  0.43488259  0.56521096  1
  Pt  Pt3  1  0.50000669  0.43528366  0.43478505  1
  Pt  Pt4  1  0.50000505  0.56515401  0.43503220  1
  Pt  Pt5  1  0.56549817  0.50003982  0.43497542  1
  Pt  Pt6  1  0.43451138  0.50005179  0.43497614  1
  Pt  Pt7  1  0.43454820  0.50007944  0.56522055  1
  Pt  Pt8  1  0.56545487  0.50007928  0.56521089  1
  Pt  Pt9  1  0.43444628  0.43483675  0.50013232  1
  Pt  Pt10  1  0.56556711  0.43483887  0.50013346  1
  Pt  Pt11  1  0.43430945  0.56505954  0.50006500  1
  Pt  Pt12  1  0.56569482  0.56505950  0.50006387  1
  Pt  Pt13  1  0.50000260  0.50009966  0.63177500  1
  Pt  Pt14  1  0.50000576  0.50026531  0.36798424  1
  Pt  Pt15  1  0.50000877  0.63199947  0.49991797  1
  Pt  Pt16  1  0.50001367  0.36818527  0.49992268  1
  Pt  Pt17  1  0.63282156  0.49953146  0.50029409  1
  Pt  Pt18  1  0.36715977  0.49953275  0.50030630  1
  Pt  Pt19  1  0.56522608  0.43514732  0.36901870  1
  Pt  Pt20  1  0.43478903  0.43514658  0.36902445  1
  Pt  Pt21  1  0.56539371  0.56509002  0.36907902  1
  Pt  Pt22  1  0.43461761  0.56508932  0.36908692  1
  Pt  Pt23  1  0.56478863  0.36916258  0.43454597  1
  Pt  Pt24  1  0.43521640  0.36915904  0.43454708  1
  Pt  Pt25  1  0.56553417  0.63089501  0.43504581  1
  Pt  Pt26  1  0.43447673  0.63089108  0.43504573  1
  Pt  Pt27  1  0.43451257  0.56505980  0.63082867  1
  Pt  Pt28  1  0.56547733  0.56505056  0.63082620  1
  Pt  Pt29  1  0.43449941  0.43486270  0.63067003  1
  Pt  Pt30  1  0.56551759  0.43485269  0.63066154  1
  Pt  Pt31  1  0.43457483  0.63095728  0.56492987  1
  Pt  Pt32  1  0.56543244  0.63096756  0.56492839  1
  Pt  Pt33  1  0.43462531  0.36897172  0.56498937  1
  Pt  Pt34  1  0.56538915  0.36896968  0.56498822  1
  Pt  Pt35  1  0.36836482  0.56488779  0.56504201  1
  Pt  Pt36  1  0.63162458  0.56488838  0.56504024  1
  Pt  Pt37  1  0.36787718  0.43405371  0.56497994  1
  Pt  Pt38  1  0.63211590  0.43404798  0.56497734  1
  Pt  Pt39  1  0.63138434  0.43491083  0.43508199  1
  Pt  Pt40  1  0.36861893  0.43492306  0.43507798  1
  Pt  Pt41  1  0.63143338  0.56490884  0.43490055  1
  Pt  Pt42  1  0.36855954  0.56491519  0.43491050  1
  Pt  Pt43  1  0.50000095  0.63140217  0.63123892  1
  Pt  Pt44  1  0.50000144  0.36867329  0.63149760  1
  Pt  Pt45  1  0.50000137  0.36838767  0.36837944  1
  Pt  Pt46  1  0.50000691  0.63135668  0.36879097  1
  Pt  Pt47  1  0.36790342  0.49967507  0.63121119  1
  Pt  Pt48  1  0.63207001  0.49967728  0.63120596  1
  Pt  Pt49  1  0.63190867  0.49997573  0.36841144  1
  Pt  Pt50  1  0.36810382  0.49998265  0.36841630  1
  Pt  Pt51  1  0.63199629  0.63145285  0.49992724  1
  Pt  Pt52  1  0.36799977  0.63144587  0.49993217  1
  Pt  Pt53  1  0.63189794  0.36841694  0.49979796  1
  Pt  Pt54  1  0.36810707  0.36842026  0.49978232  1
  Pt  Pt55  1  0.50000245  0.69755801  0.56530645  1
  Pt  Pt56  1  0.49999538  0.30246653  0.56547447  1
  Pt  Pt57  1  0.50000799  0.30197234  0.43430105  1
  Pt  Pt58  1  0.50000605  0.69743385  0.43466374  1
  Pt  Pt59  1  0.56583921  0.50011776  0.30233129  1
  Pt  Pt60  1  0.43418234  0.50012251  0.30235730  1
  Pt  Pt61  1  0.50000632  0.56554651  0.69741506  1
  Pt  Pt62  1  0.50000363  0.43471322  0.69747441  1
  Pt  Pt63  1  0.43440110  0.30256576  0.49986514  1
  Pt  Pt64  1  0.56559012  0.30257069  0.49987704  1
  Pt  Pt65  1  0.43411626  0.69776276  0.50004829  1
  Pt  Pt66  1  0.56590367  0.69776314  0.50004242  1
  Pt  Pt67  1  0.50001044  0.43473938  0.30229808  1
  Pt  Pt68  1  0.50001400  0.56560274  0.30248591  1
  Pt  Pt69  1  0.43425585  0.50002572  0.69742089  1
  Pt  Pt70  1  0.56574635  0.50001816  0.69740833  1
  Pt  Pt71  1  0.69853535  0.49998459  0.43420045  1
  Pt  Pt72  1  0.30147436  0.49999907  0.43421202  1
  Pt  Pt73  1  0.30127459  0.49932649  0.56553430  1
  Pt  Pt74  1  0.69869318  0.49933351  0.56552324  1
  Pt  Pt75  1  0.30122921  0.43409451  0.49966848  1
  Pt  Pt76  1  0.30158240  0.56518954  0.49992860  1
  Pt  Pt77  1  0.69875605  0.43409374  0.49966184  1
  Pt  Pt78  1  0.69840486  0.56518835  0.49990679  1
  Pt  Pt79  1  0.36891364  0.63051899  0.63043755  1
  Pt  Pt80  1  0.63105660  0.63053475  0.63041926  1
  Pt  Pt81  1  0.36913318  0.36930833  0.63054112  1
  Pt  Pt82  1  0.63087045  0.36929169  0.63055297  1
  Pt  Pt83  1  0.63084147  0.36968630  0.36942348  1
  Pt  Pt84  1  0.36916812  0.36966725  0.36944278  1
  Pt  Pt85  1  0.63107296  0.63053061  0.36941814  1
  Pt  Pt86  1  0.36893781  0.63051277  0.36941651  1
  Pt  Pt87  1  0.56485317  0.36792561  0.30283580  1
  Pt  Pt88  1  0.43515669  0.36791230  0.30283360  1
  Pt  Pt89  1  0.56499844  0.63221801  0.30283928  1
  Pt  Pt90  1  0.43500974  0.63221504  0.30283426  1
  Pt  Pt91  1  0.56480449  0.30235038  0.36757710  1
  Pt  Pt92  1  0.43519943  0.30233483  0.36757364  1
  Pt  Pt93  1  0.56507865  0.69725729  0.36808512  1
  Pt  Pt94  1  0.43492800  0.69725717  0.36809037  1
  Pt  Pt95  1  0.43502961  0.69726959  0.63198657  1
  Pt  Pt96  1  0.56496738  0.69727766  0.63198692  1
  Pt  Pt97  1  0.43495112  0.30265352  0.63204739  1
  Pt  Pt98  1  0.56503173  0.30267463  0.63205446  1
  Pt  Pt99  1  0.36739608  0.69733257  0.56474551  1
  Pt  Pt100  1  0.63263431  0.69733475  0.56476501  1
  Pt  Pt101  1  0.36709870  0.30324286  0.56467754  1
  Pt  Pt102  1  0.63288440  0.30320781  0.56473418  1
  Pt  Pt103  1  0.63207807  0.30291009  0.43468199  1
  Pt  Pt104  1  0.36790292  0.30288782  0.43470575  1
  Pt  Pt105  1  0.63273924  0.69735489  0.43522832  1
  Pt  Pt106  1  0.36730952  0.69735561  0.43526012  1
  Pt  Pt107  1  0.36741299  0.56476534  0.69724015  1
  Pt  Pt108  1  0.63255962  0.56475153  0.69724654  1
  Pt  Pt109  1  0.36779948  0.43516900  0.69729815  1
  Pt  Pt110  1  0.63220991  0.43516346  0.69730763  1
  Pt  Pt111  1  0.43494607  0.63200511  0.69709544  1
  Pt  Pt112  1  0.56505673  0.63199761  0.69709636  1
  Pt  Pt113  1  0.43532310  0.36792272  0.69733031  1
  Pt  Pt114  1  0.56470815  0.36792827  0.69731918  1
  Pt  Pt115  1  0.69796810  0.43544485  0.36755139  1
  Pt  Pt116  1  0.30203903  0.43544783  0.36757804  1
  Pt  Pt117  1  0.69791328  0.56470021  0.36773509  1
  Pt  Pt118  1  0.30209739  0.56470204  0.36771396  1
  Pt  Pt119  1  0.69773579  0.36814581  0.43460567  1
  Pt  Pt120  1  0.30227050  0.36814271  0.43461968  1
  Pt  Pt121  1  0.69779905  0.63214539  0.43519997  1
  Pt  Pt122  1  0.30220741  0.63214708  0.43522344  1
  Pt  Pt123  1  0.63250902  0.43525150  0.30265482  1
  Pt  Pt124  1  0.36753833  0.43522743  0.30268384  1
  Pt  Pt125  1  0.63262943  0.56480876  0.30260386  1
  Pt  Pt126  1  0.36737732  0.56482516  0.30261180  1
  Pt  Pt127  1  0.30212178  0.56464922  0.63210887  1
  Pt  Pt128  1  0.30210039  0.43505022  0.63297869  1
  Pt  Pt129  1  0.69785066  0.56463837  0.63211486  1
  Pt  Pt130  1  0.69788604  0.43506640  0.63297473  1
  Pt  Pt131  1  0.30217149  0.63203735  0.56471380  1
  Pt  Pt132  1  0.69783142  0.63203204  0.56472721  1
  Au  Au133  1  0.29730457  0.36496143  0.56534121  1
  Au  Au134  1  0.70268314  0.36495171  0.56535669  1
  Au  Au135  1  0.50001025  0.76870398  0.49988854  1
  Au  Au136  1  0.49999530  0.23118779  0.50000010  1
  Au  Au137  1  0.50000174  0.50032860  0.76848397  1
  Au  Au138  1  0.49999676  0.50004365  0.23143294  1
  Au  Au139  1  0.76971969  0.49955852  0.50008953  1
  Au  Au140  1  0.23028762  0.49957240  0.50011839  1
  Au  Au141  1  0.56588997  0.23206402  0.43408074  1
  Au  Au142  1  0.43411436  0.23206079  0.43408527  1
  Au  Au143  1  0.56605550  0.76788076  0.43431633  1
  Au  Au144  1  0.43400457  0.76790346  0.43428167  1
  Au  Au145  1  0.43405102  0.76795498  0.56569816  1
  Au  Au146  1  0.56595981  0.76792424  0.56569752  1
  Au  Au147  1  0.43409949  0.23223001  0.56582653  1
  Au  Au148  1  0.56585479  0.23219421  0.56585583  1
  Au  Au149  1  0.50000229  0.70036914  0.70038365  1
  Au  Au150  1  0.49999623  0.29938161  0.70032245  1
  Au  Au151  1  0.50000170  0.29923299  0.29933865  1
  Au  Au152  1  0.50000241  0.70045869  0.29984070  1
  Au  Au153  1  0.70103968  0.50013133  0.29895875  1
  Au  Au154  1  0.29900677  0.50009160  0.29896110  1
  Au  Au155  1  0.56595603  0.43418496  0.23219886  1
  Au  Au156  1  0.43406172  0.43418065  0.23219557  1
  Au  Au157  1  0.56599412  0.56589991  0.23222831  1
  Au  Au158  1  0.43400093  0.56595039  0.23225257  1
  Au  Au159  1  0.43392785  0.56594441  0.76771236  1
  Au  Au160  1  0.56608206  0.56591666  0.76771501  1
  Au  Au161  1  0.43423589  0.43450678  0.76818043  1
  Au  Au162  1  0.56578735  0.43452840  0.76814368  1
  Au  Au163  1  0.29864639  0.29891918  0.49803400  1
  Au  Au164  1  0.29879287  0.70074892  0.50022413  1
  Au  Au165  1  0.70130495  0.29895348  0.49802302  1
  Au  Au166  1  0.70123572  0.70072529  0.50020442  1
  Au  Au167  1  0.23157017  0.56561204  0.56589976  1
  Au  Au168  1  0.23067780  0.43352456  0.56612803  1
  Au  Au169  1  0.76838516  0.56561567  0.56586173  1
  Au  Au170  1  0.76929715  0.43354039  0.56613873  1
  Au  Au171  1  0.76914022  0.43514509  0.43302518  1
  Au  Au172  1  0.76862888  0.56564364  0.43411194  1
  Au  Au173  1  0.23085754  0.43520004  0.43305599  1
  Au  Au174  1  0.23138654  0.56564918  0.43413018  1
  Au  Au175  1  0.29902953  0.50046688  0.70107867  1
  Au  Au176  1  0.70097784  0.50044704  0.70107652  1
  Au  Au177  1  0.49999883  0.76414513  0.63244335  1
  Au  Au178  1  0.49999193  0.23566919  0.63255665  1
  Au  Au179  1  0.50000225  0.23514259  0.36726959  1
  Au  Au180  1  0.50002579  0.76409352  0.36775729  1
  Au  Au181  1  0.63302610  0.76442237  0.49999525  1
  Au  Au182  1  0.36705818  0.76444449  0.49996305  1
  Au  Au183  1  0.63254199  0.23615403  0.50015147  1
  Au  Au184  1  0.36738118  0.23609203  0.50009345  1
  Au  Au185  1  0.50000516  0.63249060  0.76410724  1
  Au  Au186  1  0.50003724  0.36767416  0.76404909  1
  Au  Au187  1  0.50000358  0.36737084  0.23585372  1
  Au  Au188  1  0.50000305  0.63263696  0.23585724  1
  Au  Au189  1  0.36718328  0.50000461  0.76438460  1
  Au  Au190  1  0.63281702  0.50003163  0.76438130  1
  Au  Au191  1  0.63282568  0.49997861  0.23553481  1
  Au  Au192  1  0.36723532  0.50000362  0.23556980  1
  Au  Au193  1  0.23511738  0.49972074  0.63290353  1
  Au  Au194  1  0.76488257  0.49973120  0.63291106  1
  Au  Au195  1  0.76519156  0.50039525  0.36643507  1
  Au  Au196  1  0.23481667  0.50040034  0.36642440  1
  Au  Au197  1  0.76488460  0.63247746  0.49995836  1
  Au  Au198  1  0.76657037  0.36803321  0.49691423  1
  Au  Au199  1  0.23511604  0.63248427  0.49996528  1
  Au  Au200  1  0.23342450  0.36803338  0.49691526  1
  Au  Au201  1  0.36866508  0.69869651  0.69875113  1
  Au  Au202  1  0.63129140  0.69876694  0.69874171  1
  Au  Au203  1  0.36946547  0.30110957  0.69944582  1
  Au  Au204  1  0.63051033  0.30108766  0.69960498  1
  Au  Au205  1  0.69948867  0.36911397  0.30083385  1
  Au  Au206  1  0.30049278  0.36916432  0.30093396  1
  Au  Au207  1  0.69956755  0.63086696  0.30081560  1
  Au  Au208  1  0.30042122  0.63087202  0.30078932  1
  Au  Au209  1  0.69966941  0.30066104  0.36910845  1
  Au  Au210  1  0.30029286  0.30065316  0.36916466  1
  Au  Au211  1  0.69967814  0.69924234  0.36915078  1
  Au  Au212  1  0.30044817  0.69918473  0.36908512  1
  Au  Au213  1  0.63124775  0.30120872  0.30134097  1
  Au  Au214  1  0.36874544  0.30120532  0.30136823  1
  Au  Au215  1  0.63120421  0.69897612  0.30118842  1
  Au  Au216  1  0.36885250  0.69901051  0.30116523  1
  Au  Au217  1  0.30033992  0.69911657  0.63077615  1
  Au  Au218  1  0.69973072  0.69911403  0.63074154  1
  Au  Au219  1  0.30006578  0.30133533  0.63392255  1
  Au  Au220  1  0.69978959  0.30128144  0.63396533  1
  Au  Au221  1  0.30016516  0.63064916  0.69911786  1
  Au  Au222  1  0.69963153  0.63073411  0.69911729  1
  Au  Au223  1  0.30092653  0.36953333  0.70073642  1
  Au  Au224  1  0.69908710  0.36949135  0.70073047  1
  Au  Au225  1  0.36888154  0.76144548  0.63076529  1
  Au  Au226  1  0.63112607  0.76145095  0.63073577  1
  Au  Au227  1  0.36809083  0.23908822  0.62991934  1
  Au  Au228  1  0.63177610  0.23907629  0.63006641  1
  Au  Au229  1  0.63128564  0.23822120  0.36896525  1
  Au  Au230  1  0.36868127  0.23819515  0.36902481  1
  Au  Au231  1  0.63127208  0.76154457  0.36925816  1
  Au  Au232  1  0.36876205  0.76156951  0.36926619  1
  Au  Au233  1  0.36879147  0.63089418  0.76149206  1
  Au  Au234  1  0.63116829  0.63091195  0.76150608  1
  Au  Au235  1  0.36978526  0.36923387  0.76205407  1
  Au  Au236  1  0.63020838  0.36925693  0.76207133  1
  Au  Au237  1  0.63102678  0.36914263  0.23850435  1
  Au  Au238  1  0.36896320  0.36913817  0.23852084  1
  Au  Au239  1  0.63111166  0.63098702  0.23852666  1
  Au  Au240  1  0.36887458  0.63100098  0.23850727  1
  Au  Au241  1  0.23780848  0.63082750  0.63078507  1
  Au  Au242  1  0.76218336  0.63077357  0.63083043  1
  Au  Au243  1  0.23627529  0.37175075  0.63559911  1
  Au  Au244  1  0.76369007  0.37172972  0.63558226  1
  Au  Au245  1  0.76218213  0.36898981  0.36895205  1
  Au  Au246  1  0.23780807  0.36905646  0.36903050  1
  Au  Au247  1  0.76214249  0.63089065  0.36917862  1
  Au  Au248  1  0.23787180  0.63091283  0.36921325  1
