# generated using pymatgen
data_Ni27Pt80
_symmetry_space_group_name_H-M   'P 1'
_cell_length_a   30.00000000
_cell_length_b   30.00000000
_cell_length_c   30.00000000
_cell_angle_alpha   90.00000000
_cell_angle_beta   90.00000000
_cell_angle_gamma   90.00000000
_symmetry_Int_Tables_number   1
_chemical_formula_structural   Ni27Pt80
_chemical_formula_sum   'Ni81 Pt240'
_cell_volume   27000.00000000
_cell_formula_units_Z   3
loop_
 _symmetry_equiv_pos_site_id
 _symmetry_equiv_pos_as_xyz
  1  'x, y, z'
loop_
 _atom_site_type_symbol
 _atom_site_label
 _atom_site_symmetry_multiplicity
 _atom_site_fract_x
 _atom_site_fract_y
 _atom_site_fract_z
 _atom_site_occupancy
  Ni  Ni0  1  0.49970753  0.49923286  0.50090843  1
  Ni  Ni1  1  0.62885457  0.49886335  0.37238825  1
  Ni  Ni2  1  0.50111074  0.62777924  0.37288644  1
  Ni  Ni3  1  0.37127585  0.50187479  0.62794734  1
  Ni  Ni4  1  0.50110323  0.37017492  0.62742900  1
  Ni  Ni5  1  0.49923811  0.62845469  0.62853143  1
  Ni  Ni6  1  0.62903267  0.63028187  0.50046281  1
  Ni  Ni7  1  0.62917900  0.62922829  0.37223418  1
  Ni  Ni8  1  0.37266808  0.62853517  0.37101942  1
  Ni  Ni9  1  0.75127271  0.49858140  0.49888384  1
  Ni  Ni10  1  0.50075888  0.49949990  0.75179921  1
  Ni  Ni11  1  0.37336099  0.50042028  0.24461913  1
  Ni  Ni12  1  0.50100958  0.62665213  0.24750786  1
  Ni  Ni13  1  0.50285353  0.75619641  0.37410992  1
  Ni  Ni14  1  0.75025431  0.49904217  0.36848879  1
  Ni  Ni15  1  0.75478393  0.49970000  0.62326186  1
  Ni  Ni16  1  0.62692102  0.24604679  0.50099046  1
  Ni  Ni17  1  0.62781907  0.36773151  0.25217895  1
  Ni  Ni18  1  0.25258075  0.62989126  0.36580344  1
  Ni  Ni19  1  0.25036616  0.62676949  0.63027642  1
  Ni  Ni20  1  0.62853935  0.62955022  0.74866405  1
  Ni  Ni21  1  0.74785557  0.63091179  0.62829925  1
  Ni  Ni22  1  0.36979981  0.37267267  0.74667627  1
  Ni  Ni23  1  0.43529878  0.56474737  0.50048083  1
  Ni  Ni24  1  0.37070567  0.43563847  0.43627938  1
  Ni  Ni25  1  0.56610031  0.37122579  0.43624393  1
  Ni  Ni26  1  0.62920000  0.43383750  0.56454624  1
  Ni  Ni27  1  0.56546177  0.37032708  0.56626849  1
  Ni  Ni28  1  0.37111447  0.56546232  0.56434943  1
  Ni  Ni29  1  0.30698842  0.56558676  0.50069626  1
  Ni  Ni30  1  0.69607692  0.50018114  0.56267104  1
  Ni  Ni31  1  0.37419391  0.43705127  0.30823869  1
  Ni  Ni32  1  0.43722614  0.37443786  0.30852412  1
  Ni  Ni33  1  0.62670547  0.43713398  0.31019596  1
  Ni  Ni34  1  0.37565966  0.56386810  0.30869827  1
  Ni  Ni35  1  0.62706305  0.56336839  0.30964319  1
  Ni  Ni36  1  0.30872967  0.62516966  0.56207405  1
  Ni  Ni37  1  0.56367276  0.30850692  0.62732208  1
  Ni  Ni38  1  0.43894771  0.69054124  0.37317609  1
  Ni  Ni39  1  0.68800295  0.43813033  0.37252409  1
  Ni  Ni40  1  0.43814082  0.62663182  0.69130452  1
  Ni  Ni41  1  0.37319146  0.43845800  0.68992690  1
  Ni  Ni42  1  0.69167338  0.37148463  0.56364255  1
  Ni  Ni43  1  0.50164960  0.30622309  0.30691255  1
  Ni  Ni44  1  0.75325021  0.43247749  0.42833073  1
  Ni  Ni45  1  0.56872808  0.24282460  0.43266170  1
  Ni  Ni46  1  0.43655183  0.56815368  0.24621676  1
  Ni  Ni47  1  0.75385623  0.56792184  0.42957308  1
  Ni  Ni48  1  0.50160156  0.68985446  0.31252013  1
  Ni  Ni49  1  0.30686157  0.49961988  0.69252853  1
  Ni  Ni50  1  0.56783595  0.43048615  0.75493726  1
  Ni  Ni51  1  0.56803522  0.56688433  0.24577777  1
  Ni  Ni52  1  0.49958759  0.69264959  0.69280915  1
  Ni  Ni53  1  0.30807221  0.30781130  0.36887466  1
  Ni  Ni54  1  0.30732878  0.30832882  0.63206745  1
  Ni  Ni55  1  0.62689348  0.30826016  0.30936820  1
  Ni  Ni56  1  0.69091747  0.30753969  0.63063579  1
  Ni  Ni57  1  0.30963926  0.37066921  0.69182447  1
  Ni  Ni58  1  0.19145987  0.50173184  0.43863039  1
  Ni  Ni59  1  0.19212198  0.44105757  0.50126601  1
  Ni  Ni60  1  0.56139623  0.50254602  0.19153709  1
  Ni  Ni61  1  0.74744559  0.31131483  0.43289285  1
  Ni  Ni62  1  0.56350483  0.19212878  0.49800261  1
  Ni  Ni63  1  0.43341191  0.31360463  0.74768888  1
  Ni  Ni64  1  0.74432504  0.56506694  0.31116314  1
  Ni  Ni65  1  0.55968233  0.74762858  0.31246130  1
  Ni  Ni66  1  0.56465875  0.25292103  0.31125674  1
  Ni  Ni67  1  0.56407771  0.31149519  0.25415416  1
  Ni  Ni68  1  0.30915549  0.74707910  0.56817232  1
  Ni  Ni69  1  0.44500448  0.68681141  0.25418401  1
  Ni  Ni70  1  0.68090765  0.43367204  0.25386272  1
  Ni  Ni71  1  0.75059553  0.43160659  0.68320251  1
  Ni  Ni72  1  0.68607940  0.75089468  0.43149151  1
  Ni  Ni73  1  0.25257405  0.43509750  0.68809472  1
  Ni  Ni74  1  0.68465707  0.24834494  0.43178759  1
  Ni  Ni75  1  0.44141531  0.49861262  0.80464841  1
  Ni  Ni76  1  0.50069415  0.44029407  0.80353545  1
  Ni  Ni77  1  0.25173091  0.56202850  0.68788100  1
  Ni  Ni78  1  0.74882323  0.57061778  0.68591462  1
  Ni  Ni79  1  0.49797041  0.81045667  0.56006406  1
  Ni  Ni80  1  0.55992754  0.81190534  0.49877440  1
  Pt  Pt81  1  0.37089734  0.50314265  0.50077933  1
  Pt  Pt82  1  0.50162891  0.37049563  0.50101510  1
  Pt  Pt83  1  0.50069608  0.49875616  0.37218413  1
  Pt  Pt84  1  0.49862375  0.62852146  0.50038756  1
  Pt  Pt85  1  0.63094147  0.49792017  0.50346255  1
  Pt  Pt86  1  0.49969023  0.50002962  0.62929376  1
  Pt  Pt87  1  0.37220179  0.49942047  0.37118438  1
  Pt  Pt88  1  0.50077253  0.37176580  0.37080602  1
  Pt  Pt89  1  0.36933655  0.37142697  0.49974310  1
  Pt  Pt90  1  0.62983990  0.37103946  0.50306685  1
  Pt  Pt91  1  0.36973355  0.62686920  0.50189517  1
  Pt  Pt92  1  0.63046728  0.49892182  0.62592096  1
  Pt  Pt93  1  0.37103124  0.37150824  0.36865351  1
  Pt  Pt94  1  0.62871525  0.37209331  0.37201693  1
  Pt  Pt95  1  0.63020673  0.37119843  0.62645011  1
  Pt  Pt96  1  0.36974155  0.62767280  0.62862883  1
  Pt  Pt97  1  0.36925246  0.37133746  0.63086629  1
  Pt  Pt98  1  0.63063442  0.63057072  0.62897202  1
  Pt  Pt99  1  0.24767102  0.50365916  0.49910719  1
  Pt  Pt100  1  0.50305242  0.50268128  0.24849572  1
  Pt  Pt101  1  0.50206440  0.24646940  0.50089642  1
  Pt  Pt102  1  0.50024573  0.75527400  0.49870666  1
  Pt  Pt103  1  0.23966796  0.49971220  0.36954976  1
  Pt  Pt104  1  0.36762642  0.23747843  0.50026130  1
  Pt  Pt105  1  0.50356418  0.24031954  0.36890002  1
  Pt  Pt106  1  0.62774667  0.49977351  0.24158730  1
  Pt  Pt107  1  0.50290764  0.36916719  0.24135375  1
  Pt  Pt108  1  0.24273728  0.62849078  0.49798766  1
  Pt  Pt109  1  0.24204884  0.50006060  0.63160624  1
  Pt  Pt110  1  0.23899962  0.37046288  0.50028984  1
  Pt  Pt111  1  0.63392133  0.49863144  0.75958538  1
  Pt  Pt112  1  0.75775375  0.36628847  0.50000185  1
  Pt  Pt113  1  0.76107494  0.63348997  0.49905918  1
  Pt  Pt114  1  0.49889447  0.76187591  0.62965033  1
  Pt  Pt115  1  0.62969374  0.76319654  0.49994068  1
  Pt  Pt116  1  0.50052241  0.62987771  0.76208437  1
  Pt  Pt117  1  0.50226467  0.23915581  0.63052551  1
  Pt  Pt118  1  0.36787502  0.75989687  0.50198512  1
  Pt  Pt119  1  0.49846715  0.37004496  0.75960916  1
  Pt  Pt120  1  0.36993672  0.49853595  0.75928228  1
  Pt  Pt121  1  0.38045175  0.62854896  0.24539379  1
  Pt  Pt122  1  0.62457029  0.62881703  0.24403221  1
  Pt  Pt123  1  0.37327045  0.36922672  0.24890692  1
  Pt  Pt124  1  0.36584677  0.24522386  0.63249502  1
  Pt  Pt125  1  0.36863506  0.24389270  0.36901617  1
  Pt  Pt126  1  0.24553770  0.36990404  0.36849879  1
  Pt  Pt127  1  0.24853460  0.36943365  0.63509821  1
  Pt  Pt128  1  0.36952779  0.62887547  0.75518712  1
  Pt  Pt129  1  0.37311455  0.75497021  0.36715548  1
  Pt  Pt130  1  0.36705545  0.75326308  0.63067189  1
  Pt  Pt131  1  0.75127505  0.62762382  0.36854949  1
  Pt  Pt132  1  0.75097551  0.36714429  0.62795856  1
  Pt  Pt133  1  0.75009426  0.36985880  0.37156011  1
  Pt  Pt134  1  0.62594964  0.24517874  0.36928996  1
  Pt  Pt135  1  0.63048828  0.37288691  0.75558710  1
  Pt  Pt136  1  0.62972038  0.75665317  0.36629797  1
  Pt  Pt137  1  0.62811201  0.75854175  0.63088989  1
  Pt  Pt138  1  0.63104424  0.24665170  0.63213566  1
  Pt  Pt139  1  0.43514403  0.50042492  0.43810111  1
  Pt  Pt140  1  0.43537898  0.43588684  0.50048019  1
  Pt  Pt141  1  0.50109904  0.43486048  0.43756553  1
  Pt  Pt142  1  0.43423871  0.50238956  0.56367988  1
  Pt  Pt143  1  0.56577719  0.49995265  0.43726000  1
  Pt  Pt144  1  0.49969123  0.56395658  0.43706963  1
  Pt  Pt145  1  0.50063040  0.43363704  0.56535575  1
  Pt  Pt146  1  0.56563852  0.43355709  0.50228523  1
  Pt  Pt147  1  0.56476838  0.56470124  0.50089581  1
  Pt  Pt148  1  0.49858706  0.56442201  0.56414145  1
  Pt  Pt149  1  0.56385304  0.49948905  0.56435968  1
  Pt  Pt150  1  0.43362276  0.37146157  0.43539708  1
  Pt  Pt151  1  0.43445240  0.43497965  0.37097265  1
  Pt  Pt152  1  0.43582724  0.62871924  0.43361254  1
  Pt  Pt153  1  0.63000450  0.43578590  0.43684289  1
  Pt  Pt154  1  0.43451729  0.43691700  0.62948707  1
  Pt  Pt155  1  0.37173433  0.56583765  0.43688788  1
  Pt  Pt156  1  0.43533155  0.37061239  0.56604284  1
  Pt  Pt157  1  0.56656448  0.43594993  0.37224470  1
  Pt  Pt158  1  0.63004441  0.56474442  0.43786056  1
  Pt  Pt159  1  0.56540112  0.62862756  0.43564713  1
  Pt  Pt160  1  0.43521438  0.56477868  0.37145785  1
  Pt  Pt161  1  0.37056658  0.43748709  0.56529831  1
  Pt  Pt162  1  0.43454037  0.62697029  0.56462405  1
  Pt  Pt163  1  0.43488669  0.56509048  0.63034021  1
  Pt  Pt164  1  0.56470521  0.43336231  0.62747954  1
  Pt  Pt165  1  0.56853889  0.56452962  0.37273262  1
  Pt  Pt166  1  0.56414626  0.62972926  0.56462795  1
  Pt  Pt167  1  0.56418904  0.56527405  0.62933151  1
  Pt  Pt168  1  0.63024767  0.56527341  0.56313592  1
  Pt  Pt169  1  0.30677914  0.50160559  0.43550436  1
  Pt  Pt170  1  0.50143470  0.30646209  0.43622152  1
  Pt  Pt171  1  0.43578223  0.30458672  0.50071138  1
  Pt  Pt172  1  0.30466983  0.43763156  0.49969849  1
  Pt  Pt173  1  0.43433447  0.50064617  0.30530423  1
  Pt  Pt174  1  0.50047791  0.43549795  0.30488282  1
  Pt  Pt175  1  0.56843873  0.50084945  0.30792340  1
  Pt  Pt176  1  0.30744730  0.50329116  0.56414752  1
  Pt  Pt177  1  0.56541836  0.30678003  0.50090151  1
  Pt  Pt178  1  0.50181346  0.56538425  0.30935209  1
  Pt  Pt179  1  0.50373033  0.30646125  0.56684406  1
  Pt  Pt180  1  0.43559179  0.49912196  0.69582053  1
  Pt  Pt181  1  0.69576490  0.49886014  0.43484208  1
  Pt  Pt182  1  0.49931619  0.69346787  0.43386535  1
  Pt  Pt183  1  0.69609339  0.43583976  0.50411623  1
  Pt  Pt184  1  0.50040503  0.43543301  0.69545605  1
  Pt  Pt185  1  0.43466970  0.69463332  0.49978542  1
  Pt  Pt186  1  0.69757663  0.56261088  0.50061880  1
  Pt  Pt187  1  0.56448658  0.49934181  0.69590435  1
  Pt  Pt188  1  0.56464240  0.69534550  0.49928980  1
  Pt  Pt189  1  0.49874264  0.69558545  0.56421202  1
  Pt  Pt190  1  0.49943338  0.56519602  0.69593585  1
  Pt  Pt191  1  0.37057812  0.30661909  0.43656815  1
  Pt  Pt192  1  0.43732457  0.30888044  0.37034313  1
  Pt  Pt193  1  0.30897273  0.62710770  0.43541071  1
  Pt  Pt194  1  0.62723913  0.30666899  0.43794604  1
  Pt  Pt195  1  0.30773824  0.37295353  0.43553733  1
  Pt  Pt196  1  0.30976914  0.43694979  0.37164884  1
  Pt  Pt197  1  0.43982011  0.62869682  0.31170820  1
  Pt  Pt198  1  0.43794331  0.30728833  0.62815478  1
  Pt  Pt199  1  0.30977788  0.43965549  0.63090882  1
  Pt  Pt200  1  0.31065568  0.56473410  0.37034488  1
  Pt  Pt201  1  0.56447026  0.62700896  0.31103189  1
  Pt  Pt202  1  0.37085755  0.30632498  0.56416949  1
  Pt  Pt203  1  0.56343618  0.30851011  0.37219604  1
  Pt  Pt204  1  0.56575449  0.37267414  0.30710880  1
  Pt  Pt205  1  0.62733481  0.30857136  0.56552300  1
  Pt  Pt206  1  0.30691895  0.37272576  0.56466372  1
  Pt  Pt207  1  0.30821032  0.56407616  0.62710603  1
  Pt  Pt208  1  0.37336731  0.69128099  0.43422006  1
  Pt  Pt209  1  0.69205305  0.37248231  0.43733790  1
  Pt  Pt210  1  0.62833480  0.69274869  0.43678356  1
  Pt  Pt211  1  0.69050452  0.62838140  0.43752272  1
  Pt  Pt212  1  0.69349299  0.43782350  0.62318585  1
  Pt  Pt213  1  0.43759322  0.68898754  0.62992673  1
  Pt  Pt214  1  0.62936730  0.43638562  0.69064005  1
  Pt  Pt215  1  0.43585918  0.37232898  0.69099354  1
  Pt  Pt216  1  0.68845194  0.56210261  0.37140801  1
  Pt  Pt217  1  0.36942704  0.69074238  0.56383853  1
  Pt  Pt218  1  0.56289729  0.69271179  0.37294593  1
  Pt  Pt219  1  0.37135003  0.56198636  0.69165046  1
  Pt  Pt220  1  0.56233733  0.37026258  0.68960410  1
  Pt  Pt221  1  0.56192937  0.62918315  0.69158621  1
  Pt  Pt222  1  0.62795543  0.69357078  0.56248185  1
  Pt  Pt223  1  0.69211835  0.62931135  0.56155065  1
  Pt  Pt224  1  0.69486839  0.56179720  0.62588351  1
  Pt  Pt225  1  0.56094908  0.69257661  0.62798161  1
  Pt  Pt226  1  0.62981496  0.56343013  0.69123323  1
  Pt  Pt227  1  0.29833033  0.29920248  0.50038487  1
  Pt  Pt228  1  0.30807389  0.50030062  0.30300228  1
  Pt  Pt229  1  0.23463129  0.43135393  0.43076265  1
  Pt  Pt230  1  0.43083211  0.23569816  0.42885268  1
  Pt  Pt231  1  0.42927700  0.43270862  0.23924949  1
  Pt  Pt232  1  0.43277494  0.76187447  0.42800234  1
  Pt  Pt233  1  0.42883360  0.42952509  0.76101596  1
  Pt  Pt234  1  0.23417789  0.57338879  0.42451674  1
  Pt  Pt235  1  0.23307455  0.42824763  0.57292117  1
  Pt  Pt236  1  0.42861124  0.23340800  0.57204677  1
  Pt  Pt237  1  0.69715356  0.29790041  0.49800511  1
  Pt  Pt238  1  0.57600697  0.42873889  0.23435742  1
  Pt  Pt239  1  0.69026108  0.49932894  0.30636274  1
  Pt  Pt240  1  0.57210768  0.76745119  0.42851442  1
  Pt  Pt241  1  0.30023169  0.69915282  0.49965994  1
  Pt  Pt242  1  0.43111428  0.56918866  0.76166925  1
  Pt  Pt243  1  0.76400435  0.42827152  0.56885196  1
  Pt  Pt244  1  0.42801553  0.76562668  0.57124831  1
  Pt  Pt245  1  0.50022951  0.30329706  0.69574731  1
  Pt  Pt246  1  0.23893353  0.57276701  0.56871654  1
  Pt  Pt247  1  0.57328680  0.23415924  0.56951654  1
  Pt  Pt248  1  0.56827565  0.76680118  0.56870607  1
  Pt  Pt249  1  0.57201000  0.56911435  0.76114965  1
  Pt  Pt250  1  0.76484097  0.57293334  0.57042820  1
  Pt  Pt251  1  0.69692357  0.70070570  0.49870571  1
  Pt  Pt252  1  0.70388398  0.50001035  0.69382403  1
  Pt  Pt253  1  0.36766353  0.30246764  0.30502618  1
  Pt  Pt254  1  0.31250703  0.63052022  0.30443192  1
  Pt  Pt255  1  0.30585156  0.36627311  0.30510119  1
  Pt  Pt256  1  0.30260303  0.62928450  0.69575521  1
  Pt  Pt257  1  0.68905373  0.36836695  0.30599509  1
  Pt  Pt258  1  0.37577142  0.69311432  0.30586502  1
  Pt  Pt259  1  0.30855257  0.69368156  0.36454193  1
  Pt  Pt260  1  0.62760641  0.69489456  0.30428759  1
  Pt  Pt261  1  0.68894512  0.62956661  0.30551358  1
  Pt  Pt262  1  0.69156547  0.30329140  0.36850293  1
  Pt  Pt263  1  0.63268008  0.30664122  0.69467394  1
  Pt  Pt264  1  0.30316767  0.69181734  0.63338900  1
  Pt  Pt265  1  0.36617275  0.30682680  0.69576529  1
  Pt  Pt266  1  0.36694082  0.69342194  0.69566880  1
  Pt  Pt267  1  0.69193113  0.69476283  0.36613943  1
  Pt  Pt268  1  0.69626330  0.36714359  0.69467459  1
  Pt  Pt269  1  0.69546908  0.63487515  0.69541778  1
  Pt  Pt270  1  0.63132438  0.69632933  0.69620204  1
  Pt  Pt271  1  0.69556504  0.69828414  0.63428517  1
  Pt  Pt272  1  0.50547989  0.18610190  0.43753549  1
  Pt  Pt273  1  0.50126452  0.44011626  0.18833604  1
  Pt  Pt274  1  0.43758183  0.50534956  0.18977892  1
  Pt  Pt275  1  0.43887573  0.18438719  0.49931192  1
  Pt  Pt276  1  0.30782607  0.24562083  0.43078096  1
  Pt  Pt277  1  0.18594153  0.50104215  0.56184949  1
  Pt  Pt278  1  0.31664040  0.43474263  0.24658423  1
  Pt  Pt279  1  0.43762673  0.24573202  0.31030862  1
  Pt  Pt280  1  0.24710925  0.43446677  0.30790608  1
  Pt  Pt281  1  0.43891809  0.31175849  0.25097898  1
  Pt  Pt282  1  0.24509594  0.31021922  0.43128859  1
  Pt  Pt283  1  0.50249333  0.56687704  0.18969779  1
  Pt  Pt284  1  0.31153936  0.75420810  0.43110596  1
  Pt  Pt285  1  0.18427363  0.56274290  0.49751724  1
  Pt  Pt286  1  0.44471651  0.75021619  0.31437506  1
  Pt  Pt287  1  0.50212327  0.18386480  0.56163254  1
  Pt  Pt288  1  0.74755017  0.43441755  0.31280746  1
  Pt  Pt289  1  0.31249130  0.43415066  0.74674983  1
  Pt  Pt290  1  0.30718709  0.24570892  0.56955331  1
  Pt  Pt291  1  0.31911947  0.56524595  0.24512699  1
  Pt  Pt292  1  0.24470815  0.31060230  0.57000504  1
  Pt  Pt293  1  0.24897651  0.56662471  0.30857170  1
  Pt  Pt294  1  0.74943395  0.30666015  0.56669483  1
  Pt  Pt295  1  0.56591470  0.31253881  0.75601091  1
  Pt  Pt296  1  0.30751454  0.56144711  0.75251902  1
  Pt  Pt297  1  0.24703365  0.68769115  0.42855825  1
  Pt  Pt298  1  0.43212544  0.24619811  0.69065921  1
  Pt  Pt299  1  0.69454183  0.43445644  0.75189025  1
  Pt  Pt300  1  0.43648122  0.68666928  0.75053106  1
  Pt  Pt301  1  0.75272127  0.69128371  0.43108333  1
  Pt  Pt302  1  0.43570924  0.75212834  0.69023085  1
  Pt  Pt303  1  0.55707408  0.68840996  0.24839405  1
  Pt  Pt304  1  0.68439120  0.56491487  0.24605400  1
  Pt  Pt305  1  0.24739387  0.68354135  0.56760077  1
  Pt  Pt306  1  0.80455002  0.49974163  0.43049985  1
  Pt  Pt307  1  0.50090683  0.81714165  0.43610125  1
  Pt  Pt308  1  0.80779396  0.43754707  0.49288493  1
  Pt  Pt309  1  0.43737321  0.81580616  0.49937984  1
  Pt  Pt310  1  0.69216617  0.56716889  0.75162757  1
  Pt  Pt311  1  0.56279126  0.69076007  0.75327075  1
  Pt  Pt312  1  0.68669766  0.24356519  0.56625281  1
  Pt  Pt313  1  0.56711621  0.24707987  0.69058678  1
  Pt  Pt314  1  0.56270015  0.75432192  0.69072692  1
  Pt  Pt315  1  0.68937873  0.75744589  0.56746560  1
  Pt  Pt316  1  0.75333178  0.69193721  0.56742589  1
  Pt  Pt317  1  0.50101394  0.55714557  0.81271888  1
  Pt  Pt318  1  0.80783662  0.56093388  0.49379799  1
  Pt  Pt319  1  0.81028055  0.50011786  0.55831707  1
  Pt  Pt320  1  0.56251678  0.49442513  0.80936624  1
