# generated using pymatgen
data_Ni81HPt240
_symmetry_space_group_name_H-M   'P 1'
_cell_length_a   30.00000000
_cell_length_b   30.00000000
_cell_length_c   30.00000000
_cell_angle_alpha   90.00000000
_cell_angle_beta   90.00000000
_cell_angle_gamma   90.00000000
_symmetry_Int_Tables_number   1
_chemical_formula_structural   Ni81HPt240
_chemical_formula_sum   'Ni81 H1 Pt240'
_cell_volume   27000.00000000
_cell_formula_units_Z   1
loop_
 _symmetry_equiv_pos_site_id
 _symmetry_equiv_pos_as_xyz
  1  'x, y, z'
loop_
 _atom_site_type_symbol
 _atom_site_label
 _atom_site_symmetry_multiplicity
 _atom_site_fract_x
 _atom_site_fract_y
 _atom_site_fract_z
 _atom_site_occupancy
  Ni  Ni0  1  0.49957878  0.49951332  0.50050189  1
  Ni  Ni1  1  0.62835775  0.49883435  0.37220070  1
  Ni  Ni2  1  0.50080321  0.62805169  0.37292573  1
  Ni  Ni3  1  0.37149443  0.50168411  0.62783853  1
  Ni  Ni4  1  0.50133224  0.37060965  0.62739669  1
  Ni  Ni5  1  0.49924445  0.62819558  0.62873201  1
  Ni  Ni6  1  0.62888124  0.63041712  0.50060639  1
  Ni  Ni7  1  0.62854807  0.62991389  0.37223444  1
  Ni  Ni8  1  0.37315434  0.62915900  0.37059535  1
  Ni  Ni9  1  0.75063509  0.49849597  0.49757513  1
  Ni  Ni10  1  0.50184242  0.49906212  0.75155488  1
  Ni  Ni11  1  0.37404190  0.50035945  0.24386709  1
  Ni  Ni12  1  0.50114164  0.62639026  0.24714018  1
  Ni  Ni13  1  0.50196109  0.75714813  0.37503462  1
  Ni  Ni14  1  0.74950128  0.49955597  0.36833009  1
  Ni  Ni15  1  0.75475808  0.49921271  0.62268783  1
  Ni  Ni16  1  0.62654337  0.24532309  0.50133447  1
  Ni  Ni17  1  0.62767717  0.36712567  0.25264730  1
  Ni  Ni18  1  0.25390007  0.63033713  0.36542849  1
  Ni  Ni19  1  0.25007677  0.62601453  0.63072229  1
  Ni  Ni20  1  0.62836527  0.62916077  0.74838909  1
  Ni  Ni21  1  0.74805478  0.63108835  0.62807524  1
  Ni  Ni22  1  0.36935501  0.37318570  0.74689762  1
  Ni  Ni23  1  0.43544967  0.56501128  0.50036974  1
  Ni  Ni24  1  0.37092371  0.43554054  0.43612052  1
  Ni  Ni25  1  0.56590127  0.37056096  0.43623195  1
  Ni  Ni26  1  0.62916193  0.43359590  0.56409491  1
  Ni  Ni27  1  0.56541615  0.37010478  0.56584658  1
  Ni  Ni28  1  0.37113317  0.56537416  0.56449567  1
  Ni  Ni29  1  0.30728705  0.56584820  0.50039850  1
  Ni  Ni30  1  0.69606031  0.50000641  0.56222866  1
  Ni  Ni31  1  0.37460215  0.43672978  0.30811886  1
  Ni  Ni32  1  0.43726491  0.37366973  0.30856044  1
  Ni  Ni33  1  0.62648872  0.43668929  0.31060046  1
  Ni  Ni34  1  0.37637689  0.56411598  0.30828135  1
  Ni  Ni35  1  0.62641262  0.56352109  0.30976321  1
  Ni  Ni36  1  0.30904182  0.62475475  0.56227175  1
  Ni  Ni37  1  0.56378423  0.30861018  0.62747140  1
  Ni  Ni38  1  0.43895287  0.69138149  0.37306452  1
  Ni  Ni39  1  0.68711353  0.43774156  0.37256789  1
  Ni  Ni40  1  0.43805227  0.62598462  0.69140242  1
  Ni  Ni41  1  0.37311355  0.43857900  0.69006213  1
  Ni  Ni42  1  0.69157017  0.37117896  0.56345229  1
  Ni  Ni43  1  0.50163823  0.30541401  0.30726626  1
  Ni  Ni44  1  0.75216058  0.43292103  0.42761822  1
  Ni  Ni45  1  0.56843753  0.24184814  0.43289763  1
  Ni  Ni46  1  0.43638435  0.56792007  0.24560558  1
  Ni  Ni47  1  0.75298553  0.56762554  0.42895951  1
  Ni  Ni48  1  0.50119058  0.69023595  0.31360635  1
  Ni  Ni49  1  0.30696311  0.49948901  0.69246156  1
  Ni  Ni50  1  0.56830908  0.43062338  0.75491814  1
  Ni  Ni51  1  0.56804499  0.56689106  0.24591949  1
  Ni  Ni52  1  0.49947171  0.69230056  0.69274610  1
  Ni  Ni53  1  0.30805530  0.30748830  0.36849892  1
  Ni  Ni54  1  0.30715425  0.30905658  0.63227114  1
  Ni  Ni55  1  0.62676223  0.30739377  0.30964039  1
  Ni  Ni56  1  0.69079765  0.30742644  0.63052815  1
  Ni  Ni57  1  0.30951383  0.37129386  0.69165575  1
  Ni  Ni58  1  0.19201384  0.50201096  0.43796184  1
  Ni  Ni59  1  0.19221842  0.44148305  0.50046512  1
  Ni  Ni60  1  0.56156156  0.50205741  0.19162169  1
  Ni  Ni61  1  0.74719797  0.31042462  0.43323381  1
  Ni  Ni62  1  0.56283650  0.19188144  0.49856706  1
  Ni  Ni63  1  0.43350612  0.31436447  0.74790792  1
  Ni  Ni64  1  0.74350688  0.56601373  0.31125305  1
  Ni  Ni65  1  0.55825733  0.74870963  0.31340212  1
  Ni  Ni66  1  0.56428814  0.25185669  0.31175703  1
  Ni  Ni67  1  0.56381187  0.31052087  0.25456092  1
  Ni  Ni68  1  0.30855299  0.74650283  0.56861729  1
  Ni  Ni69  1  0.44631715  0.68745431  0.25392456  1
  Ni  Ni70  1  0.68050948  0.43330519  0.25441701  1
  Ni  Ni71  1  0.75101270  0.43143160  0.68324776  1
  Ni  Ni72  1  0.68543781  0.75168883  0.43224323  1
  Ni  Ni73  1  0.25232590  0.43584950  0.68783229  1
  Ni  Ni74  1  0.68445986  0.24741917  0.43221921  1
  Ni  Ni75  1  0.44197173  0.49806830  0.80449145  1
  Ni  Ni76  1  0.50116887  0.44027987  0.80360785  1
  Ni  Ni77  1  0.25181254  0.56140723  0.68830178  1
  Ni  Ni78  1  0.74894677  0.57052890  0.68561386  1
  Ni  Ni79  1  0.49766286  0.81059573  0.56104378  1
  Ni  Ni80  1  0.55943241  0.81231060  0.49975659  1
  H  H81  1  0.72992436  0.41852666  0.79059989  1
  Pt  Pt82  1  0.37096187  0.50342014  0.50040267  1
  Pt  Pt83  1  0.50151884  0.37015611  0.50066443  1
  Pt  Pt84  1  0.50068912  0.49862749  0.37200333  1
  Pt  Pt85  1  0.49849127  0.62876421  0.50054582  1
  Pt  Pt86  1  0.63085870  0.49788915  0.50320332  1
  Pt  Pt87  1  0.49968272  0.49980437  0.62895149  1
  Pt  Pt88  1  0.37272822  0.49946628  0.37104277  1
  Pt  Pt89  1  0.50066615  0.37110884  0.37098014  1
  Pt  Pt90  1  0.36911614  0.37129543  0.49955208  1
  Pt  Pt91  1  0.62964524  0.37051553  0.50291025  1
  Pt  Pt92  1  0.36994778  0.62691905  0.50196292  1
  Pt  Pt93  1  0.63058668  0.49798890  0.62576567  1
  Pt  Pt94  1  0.37119277  0.37106628  0.36860103  1
  Pt  Pt95  1  0.62839778  0.37120690  0.37231495  1
  Pt  Pt96  1  0.63018730  0.37154692  0.62617994  1
  Pt  Pt97  1  0.36965714  0.62733125  0.62912712  1
  Pt  Pt98  1  0.36923222  0.37171675  0.63072858  1
  Pt  Pt99  1  0.63071613  0.63047617  0.62903955  1
  Pt  Pt100  1  0.24793034  0.50392910  0.49880011  1
  Pt  Pt101  1  0.50317770  0.50212697  0.24846580  1
  Pt  Pt102  1  0.50146248  0.24620317  0.50155240  1
  Pt  Pt103  1  0.49985367  0.75544805  0.49953445  1
  Pt  Pt104  1  0.24066001  0.50008000  0.36895952  1
  Pt  Pt105  1  0.36706672  0.23748464  0.50058732  1
  Pt  Pt106  1  0.50325439  0.23946382  0.36938492  1
  Pt  Pt107  1  0.62767153  0.49972853  0.24176543  1
  Pt  Pt108  1  0.50302724  0.36861692  0.24144366  1
  Pt  Pt109  1  0.24329321  0.62852454  0.49722750  1
  Pt  Pt110  1  0.24180339  0.50034829  0.63124802  1
  Pt  Pt111  1  0.23912051  0.37075506  0.49965255  1
  Pt  Pt112  1  0.63481481  0.49799193  0.75896804  1
  Pt  Pt113  1  0.75743410  0.36562762  0.49984547  1
  Pt  Pt114  1  0.76077029  0.63360531  0.49881925  1
  Pt  Pt115  1  0.49860821  0.76184780  0.63035536  1
  Pt  Pt116  1  0.62937125  0.76376893  0.50056172  1
  Pt  Pt117  1  0.50056141  0.62911959  0.76197495  1
  Pt  Pt118  1  0.50205566  0.23933470  0.63077861  1
  Pt  Pt119  1  0.36766374  0.75998192  0.50304975  1
  Pt  Pt120  1  0.49903141  0.37032539  0.75927083  1
  Pt  Pt121  1  0.37016769  0.49791242  0.75959538  1
  Pt  Pt122  1  0.38144622  0.62952419  0.24465293  1
  Pt  Pt123  1  0.62371937  0.62990338  0.24453607  1
  Pt  Pt124  1  0.37386707  0.36836546  0.24834531  1
  Pt  Pt125  1  0.36576648  0.24581704  0.63285431  1
  Pt  Pt126  1  0.36838432  0.24362471  0.36892393  1
  Pt  Pt127  1  0.24615745  0.37012218  0.36800612  1
  Pt  Pt128  1  0.24845061  0.37041301  0.63476977  1
  Pt  Pt129  1  0.36972678  0.62818864  0.75530249  1
  Pt  Pt130  1  0.37397666  0.75574585  0.36676198  1
  Pt  Pt131  1  0.36623877  0.75297376  0.63122189  1
  Pt  Pt132  1  0.75052402  0.62835433  0.36870962  1
  Pt  Pt133  1  0.75113331  0.36686914  0.62787499  1
  Pt  Pt134  1  0.74982681  0.36902776  0.37191762  1
  Pt  Pt135  1  0.62569393  0.24430138  0.36967724  1
  Pt  Pt136  1  0.63107504  0.37285852  0.75570740  1
  Pt  Pt137  1  0.62887412  0.75762911  0.36698077  1
  Pt  Pt138  1  0.62822033  0.75893257  0.63115113  1
  Pt  Pt139  1  0.63096261  0.24636966  0.63228654  1
  Pt  Pt140  1  0.43534400  0.50051625  0.43784099  1
  Pt  Pt141  1  0.43518590  0.43584865  0.50002804  1
  Pt  Pt142  1  0.50098509  0.43468082  0.43738076  1
  Pt  Pt143  1  0.43415289  0.50257000  0.56330198  1
  Pt  Pt144  1  0.56561746  0.49987345  0.43712341  1
  Pt  Pt145  1  0.49966495  0.56417679  0.43701465  1
  Pt  Pt146  1  0.49998856  0.43383838  0.56431603  1
  Pt  Pt147  1  0.56549795  0.43329499  0.50191924  1
  Pt  Pt148  1  0.56476063  0.56487968  0.50078424  1
  Pt  Pt149  1  0.49869909  0.56447143  0.56415514  1
  Pt  Pt150  1  0.56389779  0.49938238  0.56395819  1
  Pt  Pt151  1  0.43354104  0.37105968  0.43529547  1
  Pt  Pt152  1  0.43457773  0.43465120  0.37086908  1
  Pt  Pt153  1  0.43583678  0.62908962  0.43350996  1
  Pt  Pt154  1  0.62968861  0.43537617  0.43677470  1
  Pt  Pt155  1  0.43450221  0.43695286  0.62915291  1
  Pt  Pt156  1  0.37213783  0.56612942  0.43660037  1
  Pt  Pt157  1  0.43517396  0.37058082  0.56573295  1
  Pt  Pt158  1  0.56634322  0.43554448  0.37232419  1
  Pt  Pt159  1  0.62959087  0.56498373  0.43766719  1
  Pt  Pt160  1  0.56502773  0.62903118  0.43574358  1
  Pt  Pt161  1  0.43542213  0.56495039  0.37118366  1
  Pt  Pt162  1  0.37054109  0.43764666  0.56490524  1
  Pt  Pt163  1  0.43450486  0.62686902  0.56500426  1
  Pt  Pt164  1  0.43490470  0.56473934  0.63041109  1
  Pt  Pt165  1  0.56409045  0.43305973  0.62607291  1
  Pt  Pt166  1  0.56810827  0.56467607  0.37264106  1
  Pt  Pt167  1  0.56421454  0.62976062  0.56478404  1
  Pt  Pt168  1  0.56441056  0.56488673  0.62917099  1
  Pt  Pt169  1  0.63031066  0.56502657  0.56318051  1
  Pt  Pt170  1  0.30715274  0.50201649  0.43512793  1
  Pt  Pt171  1  0.50113320  0.30568937  0.43642620  1
  Pt  Pt172  1  0.43544417  0.30441433  0.50071961  1
  Pt  Pt173  1  0.30484402  0.43786941  0.49927599  1
  Pt  Pt174  1  0.43448030  0.50042413  0.30501825  1
  Pt  Pt175  1  0.50048345  0.43498345  0.30494673  1
  Pt  Pt176  1  0.56829253  0.50053110  0.30800044  1
  Pt  Pt177  1  0.30763391  0.50354883  0.56385646  1
  Pt  Pt178  1  0.56521820  0.30618732  0.50117749  1
  Pt  Pt179  1  0.50160450  0.56526196  0.30892191  1
  Pt  Pt180  1  0.50372362  0.30665379  0.56708611  1
  Pt  Pt181  1  0.43591577  0.49865963  0.69602730  1
  Pt  Pt182  1  0.69475299  0.49899445  0.43433004  1
  Pt  Pt183  1  0.49884439  0.69403445  0.43430799  1
  Pt  Pt184  1  0.69583002  0.43552381  0.50383736  1
  Pt  Pt185  1  0.50069126  0.43536027  0.69500642  1
  Pt  Pt186  1  0.43441163  0.69479832  0.50042241  1
  Pt  Pt187  1  0.69729364  0.56279861  0.50034063  1
  Pt  Pt188  1  0.56524675  0.49842017  0.69513026  1
  Pt  Pt189  1  0.56443324  0.69562930  0.49979058  1
  Pt  Pt190  1  0.49853739  0.69556951  0.56479810  1
  Pt  Pt191  1  0.49970250  0.56456103  0.69569462  1
  Pt  Pt192  1  0.37035230  0.30632170  0.43658662  1
  Pt  Pt193  1  0.43732040  0.30812229  0.37060930  1
  Pt  Pt194  1  0.30968827  0.62755368  0.43497772  1
  Pt  Pt195  1  0.62695174  0.30574391  0.43820811  1
  Pt  Pt196  1  0.30795485  0.37290639  0.43528011  1
  Pt  Pt197  1  0.31046071  0.43703397  0.37144507  1
  Pt  Pt198  1  0.43995109  0.62900970  0.31138526  1
  Pt  Pt199  1  0.43800122  0.30775794  0.62830467  1
  Pt  Pt200  1  0.30978478  0.44002237  0.63061444  1
  Pt  Pt201  1  0.31163767  0.56510768  0.36978900  1
  Pt  Pt202  1  0.56385595  0.62742381  0.31127151  1
  Pt  Pt203  1  0.37061845  0.30658792  0.56421061  1
  Pt  Pt204  1  0.56327314  0.30764782  0.37246555  1
  Pt  Pt205  1  0.56563590  0.37184765  0.30739820  1
  Pt  Pt206  1  0.62729977  0.30827954  0.56566218  1
  Pt  Pt207  1  0.30689747  0.37295528  0.56437015  1
  Pt  Pt208  1  0.30823951  0.56377357  0.62725969  1
  Pt  Pt209  1  0.37369609  0.69170268  0.43434948  1
  Pt  Pt210  1  0.69178818  0.37186910  0.43737405  1
  Pt  Pt211  1  0.62780615  0.69329927  0.43711738  1
  Pt  Pt212  1  0.68996274  0.62869337  0.43733326  1
  Pt  Pt213  1  0.69398975  0.43749333  0.62278958  1
  Pt  Pt214  1  0.43732054  0.68872389  0.63035277  1
  Pt  Pt215  1  0.63059868  0.43602134  0.69110676  1
  Pt  Pt216  1  0.43579520  0.37277064  0.69102403  1
  Pt  Pt217  1  0.68764503  0.56256065  0.37111421  1
  Pt  Pt218  1  0.36917812  0.69053350  0.56443602  1
  Pt  Pt219  1  0.56243796  0.69332251  0.37341839  1
  Pt  Pt220  1  0.37151585  0.56132150  0.69187328  1
  Pt  Pt221  1  0.56311461  0.37089594  0.68943642  1
  Pt  Pt222  1  0.56205605  0.62877394  0.69145849  1
  Pt  Pt223  1  0.62792405  0.69381457  0.56285863  1
  Pt  Pt224  1  0.69211529  0.62920697  0.56170725  1
  Pt  Pt225  1  0.69514483  0.56143607  0.62563565  1
  Pt  Pt226  1  0.56101854  0.69252978  0.62822195  1
  Pt  Pt227  1  0.63013216  0.56306466  0.69087972  1
  Pt  Pt228  1  0.29768745  0.29878648  0.50034610  1
  Pt  Pt229  1  0.30934004  0.50045688  0.30240153  1
  Pt  Pt230  1  0.23528119  0.43184289  0.43016405  1
  Pt  Pt231  1  0.42998173  0.23482189  0.42924405  1
  Pt  Pt232  1  0.42946012  0.43213340  0.23909418  1
  Pt  Pt233  1  0.43200407  0.76270958  0.42908899  1
  Pt  Pt234  1  0.42910141  0.42901385  0.76138098  1
  Pt  Pt235  1  0.23518365  0.57361025  0.42394796  1
  Pt  Pt236  1  0.23350415  0.42898673  0.57200179  1
  Pt  Pt237  1  0.42862644  0.23411587  0.57236162  1
  Pt  Pt238  1  0.69674873  0.29737912  0.49804769  1
  Pt  Pt239  1  0.57621037  0.42844947  0.23488659  1
  Pt  Pt240  1  0.69020156  0.49943791  0.30626268  1
  Pt  Pt241  1  0.57122391  0.76762732  0.42944974  1
  Pt  Pt242  1  0.30044579  0.69921841  0.49971163  1
  Pt  Pt243  1  0.43135369  0.56851424  0.76179364  1
  Pt  Pt244  1  0.76425990  0.42741843  0.56824943  1
  Pt  Pt245  1  0.42757534  0.76582388  0.57242343  1
  Pt  Pt246  1  0.50047387  0.30393762  0.69549865  1
  Pt  Pt247  1  0.23916400  0.57298578  0.56832177  1
  Pt  Pt248  1  0.57305128  0.23387213  0.56992386  1
  Pt  Pt249  1  0.56797908  0.76693204  0.56936334  1
  Pt  Pt250  1  0.57204052  0.56815403  0.76045003  1
  Pt  Pt251  1  0.76514130  0.57306291  0.57025807  1
  Pt  Pt252  1  0.69612798  0.70042228  0.49894929  1
  Pt  Pt253  1  0.70369196  0.49952166  0.69363844  1
  Pt  Pt254  1  0.36802570  0.30214733  0.30492137  1
  Pt  Pt255  1  0.31356065  0.63127930  0.30381060  1
  Pt  Pt256  1  0.30649037  0.36611096  0.30467282  1
  Pt  Pt257  1  0.30256238  0.62865722  0.69617321  1
  Pt  Pt258  1  0.68887608  0.36762258  0.30645652  1
  Pt  Pt259  1  0.37670205  0.69411742  0.30520912  1
  Pt  Pt260  1  0.30947987  0.69451405  0.36400872  1
  Pt  Pt261  1  0.62654546  0.69600223  0.30478135  1
  Pt  Pt262  1  0.68810833  0.63066368  0.30582301  1
  Pt  Pt263  1  0.69133275  0.30231322  0.36878538  1
  Pt  Pt264  1  0.63268170  0.30652102  0.69461030  1
  Pt  Pt265  1  0.30278312  0.69115750  0.63372134  1
  Pt  Pt266  1  0.36616117  0.30754379  0.69594669  1
  Pt  Pt267  1  0.36661092  0.69296740  0.69607018  1
  Pt  Pt268  1  0.69116263  0.69576852  0.36656478  1
  Pt  Pt269  1  0.69639180  0.36693435  0.69442651  1
  Pt  Pt270  1  0.69552099  0.63486207  0.69517331  1
  Pt  Pt271  1  0.63127172  0.69634637  0.69620540  1
  Pt  Pt272  1  0.69561450  0.69839319  0.63422551  1
  Pt  Pt273  1  0.50466895  0.18569857  0.43830108  1
  Pt  Pt274  1  0.50168598  0.43948640  0.18844720  1
  Pt  Pt275  1  0.43818965  0.50467050  0.18932418  1
  Pt  Pt276  1  0.43813569  0.18415373  0.50014107  1
  Pt  Pt277  1  0.30752973  0.24548583  0.43068145  1
  Pt  Pt278  1  0.18589017  0.50144394  0.56126947  1
  Pt  Pt279  1  0.31783837  0.43455110  0.24611648  1
  Pt  Pt280  1  0.43764668  0.24498511  0.31053601  1
  Pt  Pt281  1  0.24839764  0.43477388  0.30734826  1
  Pt  Pt282  1  0.43939255  0.31081331  0.25088045  1
  Pt  Pt283  1  0.24514880  0.31046260  0.43083068  1
  Pt  Pt284  1  0.50280421  0.56635882  0.18966132  1
  Pt  Pt285  1  0.31253533  0.75476860  0.43112884  1
  Pt  Pt286  1  0.18467070  0.56298127  0.49675944  1
  Pt  Pt287  1  0.44549143  0.75135932  0.31391912  1
  Pt  Pt288  1  0.50169304  0.18359599  0.56222506  1
  Pt  Pt289  1  0.74682459  0.43400280  0.31367041  1
  Pt  Pt290  1  0.31193863  0.43440570  0.74688238  1
  Pt  Pt291  1  0.30689683  0.24612854  0.57007856  1
  Pt  Pt292  1  0.32062999  0.56577548  0.24454915  1
  Pt  Pt293  1  0.24455644  0.31124830  0.56998516  1
  Pt  Pt294  1  0.25041409  0.56695033  0.30785197  1
  Pt  Pt295  1  0.74911002  0.30621465  0.56666610  1
  Pt  Pt296  1  0.56613698  0.31270740  0.75585097  1
  Pt  Pt297  1  0.30778872  0.56074916  0.75284864  1
  Pt  Pt298  1  0.24806507  0.68837150  0.42807976  1
  Pt  Pt299  1  0.43202890  0.24697253  0.69116311  1
  Pt  Pt300  1  0.69651867  0.43345836  0.75320317  1
  Pt  Pt301  1  0.43655398  0.68603033  0.75055796  1
  Pt  Pt302  1  0.75205266  0.69197048  0.43140501  1
  Pt  Pt303  1  0.43519924  0.75177802  0.69062387  1
  Pt  Pt304  1  0.55574300  0.68932816  0.24912465  1
  Pt  Pt305  1  0.68344185  0.56564551  0.24664339  1
  Pt  Pt306  1  0.24751066  0.68246193  0.56760369  1
  Pt  Pt307  1  0.80459210  0.49972295  0.42954521  1
  Pt  Pt308  1  0.50031118  0.81781982  0.43733922  1
  Pt  Pt309  1  0.80689313  0.43722611  0.49179865  1
  Pt  Pt310  1  0.43693103  0.81614672  0.50068344  1
  Pt  Pt311  1  0.69245612  0.56715520  0.75118977  1
  Pt  Pt312  1  0.56250547  0.69040272  0.75312936  1
  Pt  Pt313  1  0.68647377  0.24300517  0.56639761  1
  Pt  Pt314  1  0.56700229  0.24700793  0.69062172  1
  Pt  Pt315  1  0.56268762  0.75431057  0.69088919  1
  Pt  Pt316  1  0.68938966  0.75780073  0.56756133  1
  Pt  Pt317  1  0.75322407  0.69218559  0.56714327  1
  Pt  Pt318  1  0.50145292  0.55637103  0.81273700  1
  Pt  Pt319  1  0.80715140  0.56084667  0.49295869  1
  Pt  Pt320  1  0.80934740  0.49978726  0.55706661  1
  Pt  Pt321  1  0.56355787  0.49403864  0.80967325  1
