# generated using pymatgen
data_Ni81HPt240
_symmetry_space_group_name_H-M   'P 1'
_cell_length_a   30.00000000
_cell_length_b   30.00000000
_cell_length_c   30.00000000
_cell_angle_alpha   90.00000000
_cell_angle_beta   90.00000000
_cell_angle_gamma   90.00000000
_symmetry_Int_Tables_number   1
_chemical_formula_structural   Ni81HPt240
_chemical_formula_sum   'Ni81 H1 Pt240'
_cell_volume   27000.00000000
_cell_formula_units_Z   1
loop_
 _symmetry_equiv_pos_site_id
 _symmetry_equiv_pos_as_xyz
  1  'x, y, z'
loop_
 _atom_site_type_symbol
 _atom_site_label
 _atom_site_symmetry_multiplicity
 _atom_site_fract_x
 _atom_site_fract_y
 _atom_site_fract_z
 _atom_site_occupancy
  Ni  Ni0  1  0.49981612  0.49910401  0.50071670  1
  Ni  Ni1  1  0.62881199  0.49879594  0.37232930  1
  Ni  Ni2  1  0.50109070  0.62776732  0.37283065  1
  Ni  Ni3  1  0.37148049  0.50164632  0.62789059  1
  Ni  Ni4  1  0.50112982  0.37013018  0.62745888  1
  Ni  Ni5  1  0.49862416  0.62849544  0.62867404  1
  Ni  Ni6  1  0.62899240  0.63031749  0.50047712  1
  Ni  Ni7  1  0.62919598  0.62931442  0.37224270  1
  Ni  Ni8  1  0.37274768  0.62847661  0.37085639  1
  Ni  Ni9  1  0.75110849  0.49859237  0.49881619  1
  Ni  Ni10  1  0.50045154  0.50050291  0.75166624  1
  Ni  Ni11  1  0.37345032  0.50037762  0.24454624  1
  Ni  Ni12  1  0.50111808  0.62659955  0.24741146  1
  Ni  Ni13  1  0.50290585  0.75625458  0.37408350  1
  Ni  Ni14  1  0.75021854  0.49904947  0.36843763  1
  Ni  Ni15  1  0.75463987  0.49996591  0.62329836  1
  Ni  Ni16  1  0.62698695  0.24590900  0.50104933  1
  Ni  Ni17  1  0.62777806  0.36766514  0.25214729  1
  Ni  Ni18  1  0.25270510  0.62994537  0.36566829  1
  Ni  Ni19  1  0.25090684  0.62679670  0.63062566  1
  Ni  Ni20  1  0.62803217  0.62928174  0.74864922  1
  Ni  Ni21  1  0.74773336  0.63118279  0.62841758  1
  Ni  Ni22  1  0.36978137  0.37256340  0.74675618  1
  Ni  Ni23  1  0.43522144  0.56469507  0.50032583  1
  Ni  Ni24  1  0.37064973  0.43547276  0.43619296  1
  Ni  Ni25  1  0.56621045  0.37107466  0.43618203  1
  Ni  Ni26  1  0.62917101  0.43380440  0.56459618  1
  Ni  Ni27  1  0.56557110  0.37015519  0.56628641  1
  Ni  Ni28  1  0.37115896  0.56541104  0.56420331  1
  Ni  Ni29  1  0.30708286  0.56571388  0.50071188  1
  Ni  Ni30  1  0.69600194  0.50026116  0.56264575  1
  Ni  Ni31  1  0.37421428  0.43697573  0.30830204  1
  Ni  Ni32  1  0.43718923  0.37429802  0.30861884  1
  Ni  Ni33  1  0.62669848  0.43700900  0.31015223  1
  Ni  Ni34  1  0.37573928  0.56384905  0.30862298  1
  Ni  Ni35  1  0.62699017  0.56326760  0.30968053  1
  Ni  Ni36  1  0.30901915  0.62515379  0.56228157  1
  Ni  Ni37  1  0.56367391  0.30836897  0.62742527  1
  Ni  Ni38  1  0.43898271  0.69049611  0.37305388  1
  Ni  Ni39  1  0.68794012  0.43808038  0.37256651  1
  Ni  Ni40  1  0.43774757  0.62708937  0.69221795  1
  Ni  Ni41  1  0.37324318  0.43829875  0.68990361  1
  Ni  Ni42  1  0.69158392  0.37154082  0.56371264  1
  Ni  Ni43  1  0.50163246  0.30622794  0.30696495  1
  Ni  Ni44  1  0.75325071  0.43251770  0.42829713  1
  Ni  Ni45  1  0.56873351  0.24277322  0.43259809  1
  Ni  Ni46  1  0.43652768  0.56807742  0.24621691  1
  Ni  Ni47  1  0.75370813  0.56789457  0.42949754  1
  Ni  Ni48  1  0.50159530  0.68984106  0.31275007  1
  Ni  Ni49  1  0.30730812  0.49968469  0.69267408  1
  Ni  Ni50  1  0.56804452  0.43074194  0.75481922  1
  Ni  Ni51  1  0.56808867  0.56684100  0.24583493  1
  Ni  Ni52  1  0.49892522  0.69201549  0.69357023  1
  Ni  Ni53  1  0.30807622  0.30773356  0.36887100  1
  Ni  Ni54  1  0.30726936  0.30837400  0.63209951  1
  Ni  Ni55  1  0.62690959  0.30816111  0.30938369  1
  Ni  Ni56  1  0.69085374  0.30765360  0.63065743  1
  Ni  Ni57  1  0.30960359  0.37066117  0.69188929  1
  Ni  Ni58  1  0.19155308  0.50186277  0.43873175  1
  Ni  Ni59  1  0.19224803  0.44135538  0.50130482  1
  Ni  Ni60  1  0.56138304  0.50245728  0.19158502  1
  Ni  Ni61  1  0.74742581  0.31130600  0.43295725  1
  Ni  Ni62  1  0.56353317  0.19210419  0.49802586  1
  Ni  Ni63  1  0.43336997  0.31353496  0.74773152  1
  Ni  Ni64  1  0.74424981  0.56511495  0.31121709  1
  Ni  Ni65  1  0.55963709  0.74769917  0.31256282  1
  Ni  Ni66  1  0.56452269  0.25280605  0.31140656  1
  Ni  Ni67  1  0.56402977  0.31148090  0.25424111  1
  Ni  Ni68  1  0.30957866  0.74714499  0.56832422  1
  Ni  Ni69  1  0.44525106  0.68696972  0.25420749  1
  Ni  Ni70  1  0.68089913  0.43366003  0.25384425  1
  Ni  Ni71  1  0.75037667  0.43185405  0.68334401  1
  Ni  Ni72  1  0.68601545  0.75099780  0.43158472  1
  Ni  Ni73  1  0.25267011  0.43518708  0.68816406  1
  Ni  Ni74  1  0.68474780  0.24827470  0.43189517  1
  Ni  Ni75  1  0.44175337  0.49821257  0.80501995  1
  Ni  Ni76  1  0.50082955  0.44032220  0.80270111  1
  Ni  Ni77  1  0.25241531  0.56208300  0.68832463  1
  Ni  Ni78  1  0.74869905  0.57069578  0.68592737  1
  Ni  Ni79  1  0.49794014  0.81074014  0.55977015  1
  Ni  Ni80  1  0.55974616  0.81199800  0.49886141  1
  H  H81  1  0.40940199  0.71891063  0.78884168  1
  Pt  Pt82  1  0.37075959  0.50301768  0.50054535  1
  Pt  Pt83  1  0.50174805  0.37041013  0.50092415  1
  Pt  Pt84  1  0.50074607  0.49869821  0.37217002  1
  Pt  Pt85  1  0.49855964  0.62857342  0.50025568  1
  Pt  Pt86  1  0.63094159  0.49794061  0.50346331  1
  Pt  Pt87  1  0.49960810  0.49971617  0.62893439  1
  Pt  Pt88  1  0.37225834  0.49938613  0.37116665  1
  Pt  Pt89  1  0.50076293  0.37162614  0.37080360  1
  Pt  Pt90  1  0.36927571  0.37118389  0.49973497  1
  Pt  Pt91  1  0.62981861  0.37095231  0.50307564  1
  Pt  Pt92  1  0.36971979  0.62691509  0.50171822  1
  Pt  Pt93  1  0.63037610  0.49893701  0.62584099  1
  Pt  Pt94  1  0.37100158  0.37148001  0.36872519  1
  Pt  Pt95  1  0.62875370  0.37198593  0.37206209  1
  Pt  Pt96  1  0.63010602  0.37116536  0.62646139  1
  Pt  Pt97  1  0.37032044  0.62766806  0.62880312  1
  Pt  Pt98  1  0.36926000  0.37124127  0.63085171  1
  Pt  Pt99  1  0.63051513  0.63070206  0.62888252  1
  Pt  Pt100  1  0.24783977  0.50387046  0.49920435  1
  Pt  Pt101  1  0.50304933  0.50256395  0.24856271  1
  Pt  Pt102  1  0.50203665  0.24635362  0.50092790  1
  Pt  Pt103  1  0.50006554  0.75532584  0.49866915  1
  Pt  Pt104  1  0.23964370  0.49981798  0.36955946  1
  Pt  Pt105  1  0.36752793  0.23736683  0.50029479  1
  Pt  Pt106  1  0.50343581  0.24027745  0.36895667  1
  Pt  Pt107  1  0.62766535  0.49968142  0.24160875  1
  Pt  Pt108  1  0.50291191  0.36913920  0.24131277  1
  Pt  Pt109  1  0.24298747  0.62857698  0.49800260  1
  Pt  Pt110  1  0.24226770  0.50040087  0.63172794  1
  Pt  Pt111  1  0.23901848  0.37058005  0.50031237  1
  Pt  Pt112  1  0.63342533  0.49908278  0.75933597  1
  Pt  Pt113  1  0.75770760  0.36631831  0.50006433  1
  Pt  Pt114  1  0.76107810  0.63366519  0.49908521  1
  Pt  Pt115  1  0.49862741  0.76203623  0.62926583  1
  Pt  Pt116  1  0.62970709  0.76347541  0.49999958  1
  Pt  Pt117  1  0.49886813  0.63050492  0.76036816  1
  Pt  Pt118  1  0.50224257  0.23898662  0.63051141  1
  Pt  Pt119  1  0.36782342  0.75993756  0.50186780  1
  Pt  Pt120  1  0.49844672  0.36976099  0.75957614  1
  Pt  Pt121  1  0.37012083  0.49824144  0.75918908  1
  Pt  Pt122  1  0.38072307  0.62856041  0.24528291  1
  Pt  Pt123  1  0.62446743  0.62884400  0.24408111  1
  Pt  Pt124  1  0.37334045  0.36913780  0.24882930  1
  Pt  Pt125  1  0.36582487  0.24515068  0.63251880  1
  Pt  Pt126  1  0.36862014  0.24383232  0.36904201  1
  Pt  Pt127  1  0.24557040  0.36992294  0.36843385  1
  Pt  Pt128  1  0.24855568  0.36966412  0.63509395  1
  Pt  Pt129  1  0.37054282  0.62880464  0.75529959  1
  Pt  Pt130  1  0.37318109  0.75506816  0.36698756  1
  Pt  Pt131  1  0.36770892  0.75342804  0.63089766  1
  Pt  Pt132  1  0.75121573  0.62765571  0.36859262  1
  Pt  Pt133  1  0.75089179  0.36732734  0.62809591  1
  Pt  Pt134  1  0.75003862  0.36976620  0.37156817  1
  Pt  Pt135  1  0.62593990  0.24507950  0.36933938  1
  Pt  Pt136  1  0.63029744  0.37289807  0.75548222  1
  Pt  Pt137  1  0.62968893  0.75671206  0.36634874  1
  Pt  Pt138  1  0.62783588  0.75872926  0.63110331  1
  Pt  Pt139  1  0.63107221  0.24658301  0.63218533  1
  Pt  Pt140  1  0.43521019  0.50033907  0.43807708  1
  Pt  Pt141  1  0.43533735  0.43574711  0.50031240  1
  Pt  Pt142  1  0.50119322  0.43475005  0.43749105  1
  Pt  Pt143  1  0.43434563  0.50190070  0.56307102  1
  Pt  Pt144  1  0.56581116  0.49990418  0.43726839  1
  Pt  Pt145  1  0.49969006  0.56392039  0.43703584  1
  Pt  Pt146  1  0.50071532  0.43327022  0.56519955  1
  Pt  Pt147  1  0.56568151  0.43351021  0.50224291  1
  Pt  Pt148  1  0.56478874  0.56475472  0.50082919  1
  Pt  Pt149  1  0.49851709  0.56439019  0.56393835  1
  Pt  Pt150  1  0.56378912  0.49941923  0.56422104  1
  Pt  Pt151  1  0.43361750  0.37133944  0.43542133  1
  Pt  Pt152  1  0.43446902  0.43490736  0.37104977  1
  Pt  Pt153  1  0.43577162  0.62873759  0.43350412  1
  Pt  Pt154  1  0.62999559  0.43571551  0.43683112  1
  Pt  Pt155  1  0.43453802  0.43665104  0.62929181  1
  Pt  Pt156  1  0.37172468  0.56581570  0.43677605  1
  Pt  Pt157  1  0.43529961  0.37040348  0.56593900  1
  Pt  Pt158  1  0.56656675  0.43587627  0.37226973  1
  Pt  Pt159  1  0.63002562  0.56473944  0.43783677  1
  Pt  Pt160  1  0.56540604  0.62865839  0.43562072  1
  Pt  Pt161  1  0.43528311  0.56469073  0.37140563  1
  Pt  Pt162  1  0.37048998  0.43736428  0.56514335  1
  Pt  Pt163  1  0.43451927  0.62700299  0.56449663  1
  Pt  Pt164  1  0.43463609  0.56443420  0.62946467  1
  Pt  Pt165  1  0.56465810  0.43332765  0.62741606  1
  Pt  Pt166  1  0.56852735  0.56452057  0.37272492  1
  Pt  Pt167  1  0.56401414  0.62985842  0.56451333  1
  Pt  Pt168  1  0.56396779  0.56532674  0.62904403  1
  Pt  Pt169  1  0.63018996  0.56532851  0.56308915  1
  Pt  Pt170  1  0.30673952  0.50160134  0.43537864  1
  Pt  Pt171  1  0.50141152  0.30639467  0.43623251  1
  Pt  Pt172  1  0.43568506  0.30445689  0.50072805  1
  Pt  Pt173  1  0.30464994  0.43756652  0.49964220  1
  Pt  Pt174  1  0.43435984  0.50061110  0.30530489  1
  Pt  Pt175  1  0.50043267  0.43544832  0.30497258  1
  Pt  Pt176  1  0.56842929  0.50074281  0.30792035  1
  Pt  Pt177  1  0.30758676  0.50341698  0.56415097  1
  Pt  Pt178  1  0.56547445  0.30663788  0.50092060  1
  Pt  Pt179  1  0.50185813  0.56535666  0.30928884  1
  Pt  Pt180  1  0.50372061  0.30636878  0.56687456  1
  Pt  Pt181  1  0.43567552  0.49881549  0.69543113  1
  Pt  Pt182  1  0.69566802  0.49884961  0.43480790  1
  Pt  Pt183  1  0.49929212  0.69352136  0.43379663  1
  Pt  Pt184  1  0.69597316  0.43584392  0.50411945  1
  Pt  Pt185  1  0.50042920  0.43544909  0.69564060  1
  Pt  Pt186  1  0.43457649  0.69467813  0.49971633  1
  Pt  Pt187  1  0.69759159  0.56265588  0.50062169  1
  Pt  Pt188  1  0.56417871  0.49934556  0.69557464  1
  Pt  Pt189  1  0.56458003  0.69553016  0.49933262  1
  Pt  Pt190  1  0.49847173  0.69565872  0.56418463  1
  Pt  Pt191  1  0.49888585  0.56539404  0.69483380  1
  Pt  Pt192  1  0.37056902  0.30654414  0.43651961  1
  Pt  Pt193  1  0.43734219  0.30877288  0.37033160  1
  Pt  Pt194  1  0.30904457  0.62713878  0.43528821  1
  Pt  Pt195  1  0.62727567  0.30651305  0.43801009  1
  Pt  Pt196  1  0.30772518  0.37292910  0.43550406  1
  Pt  Pt197  1  0.30979051  0.43695001  0.37160988  1
  Pt  Pt198  1  0.43987166  0.62871291  0.31167722  1
  Pt  Pt199  1  0.43796557  0.30719410  0.62815867  1
  Pt  Pt200  1  0.30984726  0.43973394  0.63092152  1
  Pt  Pt201  1  0.31068222  0.56472763  0.37022010  1
  Pt  Pt202  1  0.56445826  0.62703897  0.31106523  1
  Pt  Pt203  1  0.37079058  0.30624452  0.56422654  1
  Pt  Pt204  1  0.56343823  0.30839946  0.37218734  1
  Pt  Pt205  1  0.56572902  0.37253325  0.30715254  1
  Pt  Pt206  1  0.62733332  0.30850911  0.56559242  1
  Pt  Pt207  1  0.30687981  0.37270430  0.56468099  1
  Pt  Pt208  1  0.30864773  0.56407170  0.62723058  1
  Pt  Pt209  1  0.37338885  0.69130258  0.43411025  1
  Pt  Pt210  1  0.69204611  0.37246085  0.43737736  1
  Pt  Pt211  1  0.62824069  0.69281370  0.43687839  1
  Pt  Pt212  1  0.69048378  0.62843292  0.43750388  1
  Pt  Pt213  1  0.69339720  0.43794445  0.62318188  1
  Pt  Pt214  1  0.43764356  0.68916275  0.63028827  1
  Pt  Pt215  1  0.62918971  0.43644056  0.69058251  1
  Pt  Pt216  1  0.43593044  0.37228993  0.69100301  1
  Pt  Pt217  1  0.68834444  0.56213008  0.37134983  1
  Pt  Pt218  1  0.36959599  0.69076091  0.56379975  1
  Pt  Pt219  1  0.56295583  0.69272305  0.37297323  1
  Pt  Pt220  1  0.37187004  0.56191912  0.69168741  1
  Pt  Pt221  1  0.56225640  0.37020343  0.68961065  1
  Pt  Pt222  1  0.56163584  0.62941427  0.69122788  1
  Pt  Pt223  1  0.62792508  0.69371295  0.56241543  1
  Pt  Pt224  1  0.69211671  0.62940538  0.56143872  1
  Pt  Pt225  1  0.69469072  0.56203032  0.62580310  1
  Pt  Pt226  1  0.56078089  0.69261649  0.62769192  1
  Pt  Pt227  1  0.62939282  0.56356966  0.69113872  1
  Pt  Pt228  1  0.29820655  0.29910067  0.50040834  1
  Pt  Pt229  1  0.30828063  0.50025414  0.30295276  1
  Pt  Pt230  1  0.23469426  0.43152137  0.43075067  1
  Pt  Pt231  1  0.43082190  0.23558731  0.42889678  1
  Pt  Pt232  1  0.42930467  0.43261634  0.23926233  1
  Pt  Pt233  1  0.43272861  0.76189208  0.42793096  1
  Pt  Pt234  1  0.42878248  0.42938322  0.76097613  1
  Pt  Pt235  1  0.23422110  0.57359801  0.42436842  1
  Pt  Pt236  1  0.23332215  0.42859903  0.57293518  1
  Pt  Pt237  1  0.42861723  0.23332821  0.57208054  1
  Pt  Pt238  1  0.69710483  0.29790492  0.49805879  1
  Pt  Pt239  1  0.57599041  0.42860703  0.23427097  1
  Pt  Pt240  1  0.69023876  0.49923570  0.30637581  1
  Pt  Pt241  1  0.57210026  0.76750620  0.42858907  1
  Pt  Pt242  1  0.30006010  0.69943974  0.49968482  1
  Pt  Pt243  1  0.43155655  0.56834045  0.76154347  1
  Pt  Pt244  1  0.76390801  0.42836503  0.56886807  1
  Pt  Pt245  1  0.42788901  0.76597371  0.57098453  1
  Pt  Pt246  1  0.50018170  0.30323799  0.69565607  1
  Pt  Pt247  1  0.23915432  0.57307547  0.56893958  1
  Pt  Pt248  1  0.57336125  0.23399690  0.56955857  1
  Pt  Pt249  1  0.56811932  0.76694040  0.56881576  1
  Pt  Pt250  1  0.57051942  0.56921841  0.76016592  1
  Pt  Pt251  1  0.76497409  0.57327850  0.57060332  1
  Pt  Pt252  1  0.69669196  0.70060648  0.49871096  1
  Pt  Pt253  1  0.70357595  0.50023017  0.69375874  1
  Pt  Pt254  1  0.36776146  0.30250011  0.30509766  1
  Pt  Pt255  1  0.31265484  0.63057367  0.30428103  1
  Pt  Pt256  1  0.30590852  0.36622727  0.30512216  1
  Pt  Pt257  1  0.30323403  0.62928095  0.69602848  1
  Pt  Pt258  1  0.68902167  0.36828725  0.30598566  1
  Pt  Pt259  1  0.37593161  0.69319474  0.30572815  1
  Pt  Pt260  1  0.30870957  0.69371126  0.36441588  1
  Pt  Pt261  1  0.62754572  0.69499288  0.30433578  1
  Pt  Pt262  1  0.68889958  0.62963546  0.30549788  1
  Pt  Pt263  1  0.69155055  0.30314603  0.36851213  1
  Pt  Pt264  1  0.63262248  0.30655220  0.69476008  1
  Pt  Pt265  1  0.30399459  0.69174638  0.63357569  1
  Pt  Pt266  1  0.36617247  0.30678683  0.69579301  1
  Pt  Pt267  1  0.36767579  0.69344404  0.69582041  1
  Pt  Pt268  1  0.69190098  0.69484575  0.36620531  1
  Pt  Pt269  1  0.69616704  0.36724295  0.69472865  1
  Pt  Pt270  1  0.69518664  0.63490667  0.69536384  1
  Pt  Pt271  1  0.63093137  0.69635350  0.69621009  1
  Pt  Pt272  1  0.69531825  0.69855554  0.63442999  1
  Pt  Pt273  1  0.50538986  0.18607802  0.43759375  1
  Pt  Pt274  1  0.50126423  0.44004469  0.18834924  1
  Pt  Pt275  1  0.43764633  0.50531742  0.18974578  1
  Pt  Pt276  1  0.43881120  0.18434950  0.49940075  1
  Pt  Pt277  1  0.30780313  0.24561589  0.43072466  1
  Pt  Pt278  1  0.18613288  0.50131463  0.56189683  1
  Pt  Pt279  1  0.31675168  0.43465445  0.24655562  1
  Pt  Pt280  1  0.43758162  0.24560612  0.31025725  1
  Pt  Pt281  1  0.24721608  0.43455010  0.30789384  1
  Pt  Pt282  1  0.43894796  0.31168050  0.25094259  1
  Pt  Pt283  1  0.24501371  0.31027740  0.43128356  1
  Pt  Pt284  1  0.50257276  0.56675246  0.18976289  1
  Pt  Pt285  1  0.31158256  0.75425005  0.43098031  1
  Pt  Pt286  1  0.18450527  0.56294894  0.49755112  1
  Pt  Pt287  1  0.44489932  0.75031010  0.31435738  1
  Pt  Pt288  1  0.50212274  0.18376425  0.56164895  1
  Pt  Pt289  1  0.74743835  0.43432854  0.31283975  1
  Pt  Pt290  1  0.31247759  0.43406113  0.74684854  1
  Pt  Pt291  1  0.30709245  0.24573029  0.56963575  1
  Pt  Pt292  1  0.31932969  0.56526024  0.24501406  1
  Pt  Pt293  1  0.24462817  0.31065818  0.57001892  1
  Pt  Pt294  1  0.24914719  0.56659113  0.30838421  1
  Pt  Pt295  1  0.74937011  0.30678226  0.56677921  1
  Pt  Pt296  1  0.56588678  0.31239389  0.75600324  1
  Pt  Pt297  1  0.30835593  0.56156811  0.75291514  1
  Pt  Pt298  1  0.24710094  0.68770521  0.42843887  1
  Pt  Pt299  1  0.43209032  0.24612555  0.69072999  1
  Pt  Pt300  1  0.69402276  0.43471955  0.75190146  1
  Pt  Pt301  1  0.43531872  0.68957422  0.75391803  1
  Pt  Pt302  1  0.75269956  0.69149606  0.43119858  1
  Pt  Pt303  1  0.43668313  0.75274660  0.69065363  1
  Pt  Pt304  1  0.55696521  0.68844746  0.24850889  1
  Pt  Pt305  1  0.68426858  0.56490858  0.24611046  1
  Pt  Pt306  1  0.24788303  0.68344200  0.56793256  1
  Pt  Pt307  1  0.80456769  0.49986092  0.43045199  1
  Pt  Pt308  1  0.50088335  0.81723951  0.43605990  1
  Pt  Pt309  1  0.80769086  0.43763700  0.49286316  1
  Pt  Pt310  1  0.43727492  0.81603635  0.49912854  1
  Pt  Pt311  1  0.69185683  0.56735059  0.75165525  1
  Pt  Pt312  1  0.56273264  0.69044800  0.75351923  1
  Pt  Pt313  1  0.68673506  0.24357396  0.56632031  1
  Pt  Pt314  1  0.56708238  0.24695988  0.69054938  1
  Pt  Pt315  1  0.56191035  0.75387106  0.69083197  1
  Pt  Pt316  1  0.68917498  0.75770715  0.56751008  1
  Pt  Pt317  1  0.75312661  0.69225428  0.56755709  1
  Pt  Pt318  1  0.50075197  0.55795803  0.81352840  1
  Pt  Pt319  1  0.80760966  0.56102400  0.49372538  1
  Pt  Pt320  1  0.81001515  0.50024900  0.55829825  1
  Pt  Pt321  1  0.56199663  0.49493754  0.80906502  1
