# generated using pymatgen
data_Ni81HPt240
_symmetry_space_group_name_H-M   'P 1'
_cell_length_a   30.00000000
_cell_length_b   30.00000000
_cell_length_c   30.00000000
_cell_angle_alpha   90.00000000
_cell_angle_beta   90.00000000
_cell_angle_gamma   90.00000000
_symmetry_Int_Tables_number   1
_chemical_formula_structural   Ni81HPt240
_chemical_formula_sum   'Ni81 H1 Pt240'
_cell_volume   27000.00000000
_cell_formula_units_Z   1
loop_
 _symmetry_equiv_pos_site_id
 _symmetry_equiv_pos_as_xyz
  1  'x, y, z'
loop_
 _atom_site_type_symbol
 _atom_site_label
 _atom_site_symmetry_multiplicity
 _atom_site_fract_x
 _atom_site_fract_y
 _atom_site_fract_z
 _atom_site_occupancy
  Ni  Ni0  1  0.49996498  0.49925901  0.50078994  1
  Ni  Ni1  1  0.62848461  0.49875155  0.37210115  1
  Ni  Ni2  1  0.50100533  0.62809761  0.37312111  1
  Ni  Ni3  1  0.37168788  0.50196966  0.62798290  1
  Ni  Ni4  1  0.50139917  0.37047587  0.62756624  1
  Ni  Ni5  1  0.49941446  0.62867167  0.62854072  1
  Ni  Ni6  1  0.63016185  0.62952932  0.50045120  1
  Ni  Ni7  1  0.62864056  0.62986332  0.37216862  1
  Ni  Ni8  1  0.37364354  0.62940793  0.37078726  1
  Ni  Ni9  1  0.75076251  0.49826822  0.49778378  1
  Ni  Ni10  1  0.50144813  0.49982213  0.75147944  1
  Ni  Ni11  1  0.37430116  0.50017662  0.24381557  1
  Ni  Ni12  1  0.50129249  0.62621460  0.24686742  1
  Ni  Ni13  1  0.50165762  0.75728466  0.37569723  1
  Ni  Ni14  1  0.74956992  0.49936737  0.36806429  1
  Ni  Ni15  1  0.75517518  0.49928781  0.62246006  1
  Ni  Ni16  1  0.62651787  0.24498986  0.50161061  1
  Ni  Ni17  1  0.62768902  0.36650474  0.25267738  1
  Ni  Ni18  1  0.25440622  0.63058801  0.36500801  1
  Ni  Ni19  1  0.25017341  0.62644310  0.63050614  1
  Ni  Ni20  1  0.62881384  0.62963086  0.74821397  1
  Ni  Ni21  1  0.74823820  0.63089492  0.62780284  1
  Ni  Ni22  1  0.36946398  0.37349506  0.74682669  1
  Ni  Ni23  1  0.43549951  0.56494935  0.50039939  1
  Ni  Ni24  1  0.37122513  0.43572539  0.43594326  1
  Ni  Ni25  1  0.56606261  0.37047475  0.43635361  1
  Ni  Ni26  1  0.62928340  0.43362017  0.56424265  1
  Ni  Ni27  1  0.56563083  0.37006826  0.56617317  1
  Ni  Ni28  1  0.37137072  0.56551841  0.56439384  1
  Ni  Ni29  1  0.30744826  0.56591050  0.50046870  1
  Ni  Ni30  1  0.69634179  0.50005071  0.56212714  1
  Ni  Ni31  1  0.37485859  0.43668951  0.30814784  1
  Ni  Ni32  1  0.43747743  0.37354265  0.30862777  1
  Ni  Ni33  1  0.62661072  0.43648192  0.31066156  1
  Ni  Ni34  1  0.37676291  0.56426221  0.30832288  1
  Ni  Ni35  1  0.62628600  0.56369831  0.30978992  1
  Ni  Ni36  1  0.30894284  0.62514010  0.56208694  1
  Ni  Ni37  1  0.56376240  0.30819740  0.62746684  1
  Ni  Ni38  1  0.43933229  0.69140740  0.37332240  1
  Ni  Ni39  1  0.68708607  0.43758193  0.37240002  1
  Ni  Ni40  1  0.43821940  0.62669348  0.69105049  1
  Ni  Ni41  1  0.37323283  0.43872215  0.68999057  1
  Ni  Ni42  1  0.69165590  0.37087798  0.56324722  1
  Ni  Ni43  1  0.50166003  0.30516844  0.30745590  1
  Ni  Ni44  1  0.75222537  0.43262416  0.42725539  1
  Ni  Ni45  1  0.56842734  0.24158273  0.43314342  1
  Ni  Ni46  1  0.43656924  0.56794689  0.24564152  1
  Ni  Ni47  1  0.75328155  0.56764780  0.42856442  1
  Ni  Ni48  1  0.50113563  0.69034836  0.31410515  1
  Ni  Ni49  1  0.30716326  0.49984978  0.69231017  1
  Ni  Ni50  1  0.56871526  0.43063064  0.75464711  1
  Ni  Ni51  1  0.56819265  0.56680649  0.24590620  1
  Ni  Ni52  1  0.49973340  0.69282270  0.69254664  1
  Ni  Ni53  1  0.30820749  0.30771905  0.36886973  1
  Ni  Ni54  1  0.30703985  0.30946127  0.63204260  1
  Ni  Ni55  1  0.62663005  0.30696497  0.30987707  1
  Ni  Ni56  1  0.69082486  0.30684035  0.63031755  1
  Ni  Ni57  1  0.30939485  0.37156861  0.69160628  1
  Ni  Ni58  1  0.19231210  0.50241621  0.43775120  1
  Ni  Ni59  1  0.19228241  0.44199644  0.50032420  1
  Ni  Ni60  1  0.56163704  0.50179507  0.19152133  1
  Ni  Ni61  1  0.74722972  0.31021999  0.43334787  1
  Ni  Ni62  1  0.56281487  0.19155045  0.49878720  1
  Ni  Ni63  1  0.43332878  0.31447083  0.74796997  1
  Ni  Ni64  1  0.74321794  0.56640392  0.31076671  1
  Ni  Ni65  1  0.55769961  0.74901023  0.31373045  1
  Ni  Ni66  1  0.56420197  0.25146314  0.31202332  1
  Ni  Ni67  1  0.56376705  0.31009533  0.25481822  1
  Ni  Ni68  1  0.30852248  0.74697156  0.56834929  1
  Ni  Ni69  1  0.44715937  0.68772121  0.25400415  1
  Ni  Ni70  1  0.68031560  0.43296880  0.25441195  1
  Ni  Ni71  1  0.75077663  0.43115870  0.68242629  1
  Ni  Ni72  1  0.68546016  0.75188615  0.43229045  1
  Ni  Ni73  1  0.25235704  0.43617373  0.68776843  1
  Ni  Ni74  1  0.68443817  0.24694687  0.43240425  1
  Ni  Ni75  1  0.44212965  0.49849754  0.80448316  1
  Ni  Ni76  1  0.50135109  0.44047921  0.80308480  1
  Ni  Ni77  1  0.25186162  0.56187119  0.68804044  1
  Ni  Ni78  1  0.74922591  0.57077280  0.68565053  1
  Ni  Ni79  1  0.49744037  0.81157303  0.56045515  1
  Ni  Ni80  1  0.55963169  0.81248175  0.49984388  1
  H  H81  1  0.40718799  0.86277795  0.51134263  1
  Pt  Pt82  1  0.37132309  0.50334686  0.50049909  1
  Pt  Pt83  1  0.50180127  0.37036574  0.50097464  1
  Pt  Pt84  1  0.50091340  0.49864093  0.37194916  1
  Pt  Pt85  1  0.49881495  0.62862787  0.50048377  1
  Pt  Pt86  1  0.63106946  0.49777078  0.50318771  1
  Pt  Pt87  1  0.50005958  0.50008080  0.62912267  1
  Pt  Pt88  1  0.37294762  0.49945120  0.37097053  1
  Pt  Pt89  1  0.50084583  0.37100996  0.37099123  1
  Pt  Pt90  1  0.36961305  0.37161682  0.49977359  1
  Pt  Pt91  1  0.62963995  0.37033268  0.50302018  1
  Pt  Pt92  1  0.37002073  0.62696233  0.50188028  1
  Pt  Pt93  1  0.63088860  0.49886480  0.62559037  1
  Pt  Pt94  1  0.37143604  0.37117877  0.36870756  1
  Pt  Pt95  1  0.62847827  0.37091733  0.37239351  1
  Pt  Pt96  1  0.63035949  0.37087249  0.62602024  1
  Pt  Pt97  1  0.36980477  0.62770099  0.62881861  1
  Pt  Pt98  1  0.36933498  0.37199002  0.63081440  1
  Pt  Pt99  1  0.63111294  0.63058444  0.62872527  1
  Pt  Pt100  1  0.24822589  0.50408297  0.49869227  1
  Pt  Pt101  1  0.50336308  0.50213045  0.24846292  1
  Pt  Pt102  1  0.50140719  0.24602440  0.50170465  1
  Pt  Pt103  1  0.49927718  0.75629360  0.49973028  1
  Pt  Pt104  1  0.24093077  0.50048943  0.36869452  1
  Pt  Pt105  1  0.36702276  0.23749685  0.50079571  1
  Pt  Pt106  1  0.50310117  0.23926956  0.36975360  1
  Pt  Pt107  1  0.62767749  0.49963947  0.24166159  1
  Pt  Pt108  1  0.50316249  0.36833005  0.24155370  1
  Pt  Pt109  1  0.24343380  0.62870757  0.49713735  1
  Pt  Pt110  1  0.24192136  0.50070025  0.63113205  1
  Pt  Pt111  1  0.23919567  0.37141577  0.49964251  1
  Pt  Pt112  1  0.63439751  0.49869431  0.75903050  1
  Pt  Pt113  1  0.75746864  0.36541463  0.50010151  1
  Pt  Pt114  1  0.76119989  0.63364526  0.49847177  1
  Pt  Pt115  1  0.49893288  0.76193215  0.63008872  1
  Pt  Pt116  1  0.62968777  0.76375315  0.50058495  1
  Pt  Pt117  1  0.50037074  0.62995135  0.76166317  1
  Pt  Pt118  1  0.50175373  0.23917724  0.63097797  1
  Pt  Pt119  1  0.36728440  0.76073296  0.50275925  1
  Pt  Pt120  1  0.49906285  0.37019256  0.75936630  1
  Pt  Pt121  1  0.37027149  0.49830093  0.75933385  1
  Pt  Pt122  1  0.38207272  0.62992484  0.24465863  1
  Pt  Pt123  1  0.62329556  0.63033543  0.24453127  1
  Pt  Pt124  1  0.37403351  0.36826558  0.24863291  1
  Pt  Pt125  1  0.36537314  0.24595284  0.63289669  1
  Pt  Pt126  1  0.36830893  0.24359453  0.36931069  1
  Pt  Pt127  1  0.24625270  0.37029863  0.36814572  1
  Pt  Pt128  1  0.24831868  0.37074749  0.63469376  1
  Pt  Pt129  1  0.36980716  0.62881894  0.75491009  1
  Pt  Pt130  1  0.37471289  0.75602089  0.36750478  1
  Pt  Pt131  1  0.36660472  0.75337267  0.63042138  1
  Pt  Pt132  1  0.75029832  0.62857450  0.36830096  1
  Pt  Pt133  1  0.75093965  0.36650710  0.62732240  1
  Pt  Pt134  1  0.74975129  0.36869640  0.37186659  1
  Pt  Pt135  1  0.62567054  0.24390433  0.36983033  1
  Pt  Pt136  1  0.63085282  0.37255078  0.75502106  1
  Pt  Pt137  1  0.62810071  0.75776915  0.36765634  1
  Pt  Pt138  1  0.62818688  0.75886518  0.63044431  1
  Pt  Pt139  1  0.63096208  0.24577067  0.63221506  1
  Pt  Pt140  1  0.43564580  0.50042367  0.43792311  1
  Pt  Pt141  1  0.43569271  0.43595451  0.50035837  1
  Pt  Pt142  1  0.50132802  0.43463112  0.43740700  1
  Pt  Pt143  1  0.43461534  0.50256302  0.56346683  1
  Pt  Pt144  1  0.56582422  0.49977572  0.43704995  1
  Pt  Pt145  1  0.49987585  0.56408312  0.43709652  1
  Pt  Pt146  1  0.50096607  0.43366343  0.56520170  1
  Pt  Pt147  1  0.56582441  0.43333627  0.50209604  1
  Pt  Pt148  1  0.56498166  0.56474403  0.50077104  1
  Pt  Pt149  1  0.49885569  0.56467967  0.56415378  1
  Pt  Pt150  1  0.56412570  0.49950933  0.56411886  1
  Pt  Pt151  1  0.43383976  0.37118193  0.43546059  1
  Pt  Pt152  1  0.43487859  0.43468122  0.37082854  1
  Pt  Pt153  1  0.43607464  0.62918024  0.43365106  1
  Pt  Pt154  1  0.62988419  0.43523280  0.43673249  1
  Pt  Pt155  1  0.43484964  0.43712999  0.62943221  1
  Pt  Pt156  1  0.37238058  0.56607196  0.43663610  1
  Pt  Pt157  1  0.43557604  0.37085439  0.56610573  1
  Pt  Pt158  1  0.56655504  0.43538268  0.37227250  1
  Pt  Pt159  1  0.62990545  0.56463369  0.43747900  1
  Pt  Pt160  1  0.56549519  0.62880760  0.43572768  1
  Pt  Pt161  1  0.43568827  0.56496969  0.37130098  1
  Pt  Pt162  1  0.37089852  0.43789899  0.56520446  1
  Pt  Pt163  1  0.43461376  0.62713991  0.56478108  1
  Pt  Pt164  1  0.43507809  0.56508666  0.63023309  1
  Pt  Pt165  1  0.56508255  0.43335821  0.62719748  1
  Pt  Pt166  1  0.56821575  0.56466879  0.37262326  1
  Pt  Pt167  1  0.56466162  0.62975682  0.56455090  1
  Pt  Pt168  1  0.56455524  0.56538476  0.62913650  1
  Pt  Pt169  1  0.63072271  0.56503823  0.56296736  1
  Pt  Pt170  1  0.30735078  0.50210467  0.43503770  1
  Pt  Pt171  1  0.50112976  0.30567402  0.43662933  1
  Pt  Pt172  1  0.43556197  0.30457195  0.50105974  1
  Pt  Pt173  1  0.30532883  0.43808884  0.49929650  1
  Pt  Pt174  1  0.43466831  0.50048412  0.30497917  1
  Pt  Pt175  1  0.50068171  0.43493245  0.30491844  1
  Pt  Pt176  1  0.56844487  0.50044249  0.30794105  1
  Pt  Pt177  1  0.30783383  0.50373620  0.56390024  1
  Pt  Pt178  1  0.56517724  0.30608840  0.50113744  1
  Pt  Pt179  1  0.50175550  0.56527764  0.30886486  1
  Pt  Pt180  1  0.50365391  0.30657884  0.56719499  1
  Pt  Pt181  1  0.43601530  0.49901474  0.69590371  1
  Pt  Pt182  1  0.69513201  0.49877945  0.43425831  1
  Pt  Pt183  1  0.49924322  0.69403008  0.43497744  1
  Pt  Pt184  1  0.69591427  0.43537980  0.50379656  1
  Pt  Pt185  1  0.50092048  0.43557812  0.69536845  1
  Pt  Pt186  1  0.43446936  0.69492272  0.50048132  1
  Pt  Pt187  1  0.69769111  0.56266065  0.50005977  1
  Pt  Pt188  1  0.56500657  0.49938821  0.69551054  1
  Pt  Pt189  1  0.56559563  0.69455930  0.49968310  1
  Pt  Pt190  1  0.49895342  0.69552796  0.56425248  1
  Pt  Pt191  1  0.49966548  0.56520054  0.69566803  1
  Pt  Pt192  1  0.37062543  0.30645013  0.43678874  1
  Pt  Pt193  1  0.43735132  0.30815242  0.37081542  1
  Pt  Pt194  1  0.30987797  0.62748983  0.43497155  1
  Pt  Pt195  1  0.62703858  0.30546697  0.43826426  1
  Pt  Pt196  1  0.30822950  0.37318053  0.43538956  1
  Pt  Pt197  1  0.31063090  0.43708136  0.37137266  1
  Pt  Pt198  1  0.44023368  0.62916489  0.31150173  1
  Pt  Pt199  1  0.43787738  0.30781809  0.62845791  1
  Pt  Pt200  1  0.30985947  0.44028679  0.63063105  1
  Pt  Pt201  1  0.31204266  0.56524029  0.36968492  1
  Pt  Pt202  1  0.56373609  0.62763445  0.31133627  1
  Pt  Pt203  1  0.37067961  0.30677886  0.56446062  1
  Pt  Pt204  1  0.56322926  0.30732958  0.37269117  1
  Pt  Pt205  1  0.56574363  0.37159911  0.30746250  1
  Pt  Pt206  1  0.62719509  0.30783028  0.56560467  1
  Pt  Pt207  1  0.30703011  0.37334993  0.56441457  1
  Pt  Pt208  1  0.30834175  0.56415733  0.62709524  1
  Pt  Pt209  1  0.37363873  0.69171869  0.43447661  1
  Pt  Pt210  1  0.69184128  0.37159997  0.43750627  1
  Pt  Pt211  1  0.62828104  0.69309307  0.43697824  1
  Pt  Pt212  1  0.69032055  0.62851910  0.43705093  1
  Pt  Pt213  1  0.69370871  0.43761363  0.62250042  1
  Pt  Pt214  1  0.43752279  0.68917989  0.63000380  1
  Pt  Pt215  1  0.62976935  0.43628745  0.69015136  1
  Pt  Pt216  1  0.43601705  0.37287436  0.69110608  1
  Pt  Pt217  1  0.68778945  0.56243836  0.37083616  1
  Pt  Pt218  1  0.36905492  0.69080274  0.56400563  1
  Pt  Pt219  1  0.56234757  0.69336393  0.37364065  1
  Pt  Pt220  1  0.37169230  0.56182509  0.69165358  1
  Pt  Pt221  1  0.56272715  0.37020438  0.68939133  1
  Pt  Pt222  1  0.56217364  0.62925573  0.69130807  1
  Pt  Pt223  1  0.62862035  0.69370052  0.56253520  1
  Pt  Pt224  1  0.69273680  0.62916536  0.56132990  1
  Pt  Pt225  1  0.69546199  0.56165816  0.62545528  1
  Pt  Pt226  1  0.56135691  0.69268434  0.62780936  1
  Pt  Pt227  1  0.63024986  0.56349233  0.69087946  1
  Pt  Pt228  1  0.29845149  0.29994528  0.50042505  1
  Pt  Pt229  1  0.30948746  0.50046179  0.30222310  1
  Pt  Pt230  1  0.23559193  0.43224080  0.43010892  1
  Pt  Pt231  1  0.43005137  0.23479702  0.42947458  1
  Pt  Pt232  1  0.42975212  0.43195169  0.23919626  1
  Pt  Pt233  1  0.43250742  0.76161745  0.43090325  1
  Pt  Pt234  1  0.42917767  0.42933631  0.76129404  1
  Pt  Pt235  1  0.23512428  0.57409330  0.42347384  1
  Pt  Pt236  1  0.23362494  0.42941267  0.57195545  1
  Pt  Pt237  1  0.42836217  0.23400138  0.57259394  1
  Pt  Pt238  1  0.69668478  0.29711286  0.49816923  1
  Pt  Pt239  1  0.57654886  0.42811017  0.23493473  1
  Pt  Pt240  1  0.69024579  0.49938210  0.30599368  1
  Pt  Pt241  1  0.57027568  0.76705186  0.43040997  1
  Pt  Pt242  1  0.30047045  0.69945765  0.49953316  1
  Pt  Pt243  1  0.43129734  0.56896098  0.76165889  1
  Pt  Pt244  1  0.76426143  0.42757268  0.56831311  1
  Pt  Pt245  1  0.42865241  0.76441699  0.57109378  1
  Pt  Pt246  1  0.50023380  0.30345805  0.69583081  1
  Pt  Pt247  1  0.23917298  0.57315312  0.56829245  1
  Pt  Pt248  1  0.57270153  0.23369801  0.57007113  1
  Pt  Pt249  1  0.56727513  0.76656202  0.56857642  1
  Pt  Pt250  1  0.57230472  0.56925876  0.76071903  1
  Pt  Pt251  1  0.76536031  0.57278010  0.56985241  1
  Pt  Pt252  1  0.69668021  0.70061784  0.49870372  1
  Pt  Pt253  1  0.70443615  0.49990527  0.69318264  1
  Pt  Pt254  1  0.36808707  0.30200426  0.30523585  1
  Pt  Pt255  1  0.31436454  0.63162839  0.30369451  1
  Pt  Pt256  1  0.30661044  0.36608583  0.30489343  1
  Pt  Pt257  1  0.30262267  0.62917564  0.69587970  1
  Pt  Pt258  1  0.68883699  0.36716152  0.30646862  1
  Pt  Pt259  1  0.37736730  0.69454048  0.30534221  1
  Pt  Pt260  1  0.30997073  0.69465426  0.36394269  1
  Pt  Pt261  1  0.62611115  0.69646402  0.30488556  1
  Pt  Pt262  1  0.68772335  0.63107843  0.30563019  1
  Pt  Pt263  1  0.69139105  0.30184938  0.36894271  1
  Pt  Pt264  1  0.63278996  0.30610191  0.69440452  1
  Pt  Pt265  1  0.30291274  0.69155605  0.63332358  1
  Pt  Pt266  1  0.36594942  0.30783343  0.69593140  1
  Pt  Pt267  1  0.36668940  0.69347974  0.69559344  1
  Pt  Pt268  1  0.69094473  0.69621525  0.36648312  1
  Pt  Pt269  1  0.69642136  0.36669186  0.69407923  1
  Pt  Pt270  1  0.69581291  0.63500919  0.69501686  1
  Pt  Pt271  1  0.63159354  0.69652544  0.69594426  1
  Pt  Pt272  1  0.69584081  0.69850210  0.63388807  1
  Pt  Pt273  1  0.50463020  0.18545725  0.43859071  1
  Pt  Pt274  1  0.50195953  0.43923708  0.18859465  1
  Pt  Pt275  1  0.43843837  0.50451866  0.18936200  1
  Pt  Pt276  1  0.43801091  0.18410948  0.50034022  1
  Pt  Pt277  1  0.30753068  0.24582669  0.43107045  1
  Pt  Pt278  1  0.18596241  0.50181705  0.56109093  1
  Pt  Pt279  1  0.31806547  0.43440652  0.24616383  1
  Pt  Pt280  1  0.43756404  0.24480954  0.31087498  1
  Pt  Pt281  1  0.24848554  0.43481352  0.30739807  1
  Pt  Pt282  1  0.43945929  0.31055907  0.25111582  1
  Pt  Pt283  1  0.24518225  0.31079471  0.43117863  1
  Pt  Pt284  1  0.50297899  0.56619763  0.18952492  1
  Pt  Pt285  1  0.31236630  0.75489004  0.43080344  1
  Pt  Pt286  1  0.18496083  0.56322020  0.49651126  1
  Pt  Pt287  1  0.44578192  0.75192134  0.31425364  1
  Pt  Pt288  1  0.50140769  0.18342167  0.56243866  1
  Pt  Pt289  1  0.74668166  0.43371898  0.31356158  1
  Pt  Pt290  1  0.31202090  0.43474753  0.74681894  1
  Pt  Pt291  1  0.30663190  0.24655188  0.56989479  1
  Pt  Pt292  1  0.32131764  0.56593596  0.24455865  1
  Pt  Pt293  1  0.24441214  0.31180317  0.56967080  1
  Pt  Pt294  1  0.25113492  0.56732594  0.30745322  1
  Pt  Pt295  1  0.74934627  0.30554028  0.56657700  1
  Pt  Pt296  1  0.56619078  0.31233661  0.75579774  1
  Pt  Pt297  1  0.30791907  0.56125585  0.75255191  1
  Pt  Pt298  1  0.24829589  0.68830090  0.42783522  1
  Pt  Pt299  1  0.43158486  0.24697707  0.69112107  1
  Pt  Pt300  1  0.69484095  0.43426919  0.75115090  1
  Pt  Pt301  1  0.43648975  0.68687155  0.75018701  1
  Pt  Pt302  1  0.75217537  0.69207050  0.43102130  1
  Pt  Pt303  1  0.43526471  0.75234130  0.69007213  1
  Pt  Pt304  1  0.55521080  0.68967363  0.24921545  1
  Pt  Pt305  1  0.68293686  0.56595427  0.24658290  1
  Pt  Pt306  1  0.24736707  0.68287178  0.56740556  1
  Pt  Pt307  1  0.80441137  0.49948498  0.42945972  1
  Pt  Pt308  1  0.49977527  0.81829757  0.43834931  1
  Pt  Pt309  1  0.80684746  0.43688404  0.49162014  1
  Pt  Pt310  1  0.43514311  0.81962741  0.50136331  1
  Pt  Pt311  1  0.69269062  0.56712361  0.75109174  1
  Pt  Pt312  1  0.56286597  0.69077392  0.75297268  1
  Pt  Pt313  1  0.68650335  0.24246715  0.56627018  1
  Pt  Pt314  1  0.56696454  0.24682303  0.69059807  1
  Pt  Pt315  1  0.56307620  0.75447753  0.69057663  1
  Pt  Pt316  1  0.68979037  0.75800570  0.56736445  1
  Pt  Pt317  1  0.75368159  0.69216695  0.56698074  1
  Pt  Pt318  1  0.50144959  0.55736087  0.81251509  1
  Pt  Pt319  1  0.80729870  0.56070754  0.49263868  1
  Pt  Pt320  1  0.80990241  0.49958832  0.55684985  1
  Pt  Pt321  1  0.56309661  0.49466917  0.80904421  1
