# generated using pymatgen
data_Ni81HPt240
_symmetry_space_group_name_H-M   'P 1'
_cell_length_a   30.00000000
_cell_length_b   30.00000000
_cell_length_c   30.00000000
_cell_angle_alpha   90.00000000
_cell_angle_beta   90.00000000
_cell_angle_gamma   90.00000000
_symmetry_Int_Tables_number   1
_chemical_formula_structural   Ni81HPt240
_chemical_formula_sum   'Ni81 H1 Pt240'
_cell_volume   27000.00000000
_cell_formula_units_Z   1
loop_
 _symmetry_equiv_pos_site_id
 _symmetry_equiv_pos_as_xyz
  1  'x, y, z'
loop_
 _atom_site_type_symbol
 _atom_site_label
 _atom_site_symmetry_multiplicity
 _atom_site_fract_x
 _atom_site_fract_y
 _atom_site_fract_z
 _atom_site_occupancy
  Ni  Ni0  1  0.49957395  0.49922361  0.50090542  1
  Ni  Ni1  1  0.62909168  0.49898858  0.37226273  1
  Ni  Ni2  1  0.50104799  0.62774140  0.37272509  1
  Ni  Ni3  1  0.37160098  0.50185202  0.62779674  1
  Ni  Ni4  1  0.50102962  0.37020057  0.62755032  1
  Ni  Ni5  1  0.49929141  0.62842401  0.62864262  1
  Ni  Ni6  1  0.62903139  0.63002945  0.50042649  1
  Ni  Ni7  1  0.62928495  0.62919805  0.37199032  1
  Ni  Ni8  1  0.37228795  0.62849139  0.37099847  1
  Ni  Ni9  1  0.75140852  0.49861894  0.49933426  1
  Ni  Ni10  1  0.50062465  0.49955441  0.75175481  1
  Ni  Ni11  1  0.37303287  0.50043722  0.24447271  1
  Ni  Ni12  1  0.50082184  0.62696308  0.24766631  1
  Ni  Ni13  1  0.50282351  0.75598159  0.37373868  1
  Ni  Ni14  1  0.75039716  0.49903570  0.36826287  1
  Ni  Ni15  1  0.75458893  0.49957945  0.62343391  1
  Ni  Ni16  1  0.62708557  0.24634101  0.50097874  1
  Ni  Ni17  1  0.62805610  0.36805496  0.25222761  1
  Ni  Ni18  1  0.25239664  0.62985111  0.36623675  1
  Ni  Ni19  1  0.25062508  0.62676545  0.63002803  1
  Ni  Ni20  1  0.62867752  0.62945472  0.74890877  1
  Ni  Ni21  1  0.74795523  0.63065322  0.62848372  1
  Ni  Ni22  1  0.36946168  0.37253865  0.74639535  1
  Ni  Ni23  1  0.43511578  0.56457136  0.50053579  1
  Ni  Ni24  1  0.37074087  0.43560887  0.43620270  1
  Ni  Ni25  1  0.56618127  0.37139049  0.43596300  1
  Ni  Ni26  1  0.62902424  0.43388002  0.56459269  1
  Ni  Ni27  1  0.56541912  0.37037256  0.56617892  1
  Ni  Ni28  1  0.37115072  0.56536443  0.56446234  1
  Ni  Ni29  1  0.30689678  0.56529286  0.50108880  1
  Ni  Ni30  1  0.69589337  0.50014230  0.56279326  1
  Ni  Ni31  1  0.37401019  0.43716396  0.30815115  1
  Ni  Ni32  1  0.43733239  0.37455243  0.30835638  1
  Ni  Ni33  1  0.62691916  0.43728816  0.31010743  1
  Ni  Ni34  1  0.37536977  0.56373182  0.30867616  1
  Ni  Ni35  1  0.62722496  0.56335554  0.30946856  1
  Ni  Ni36  1  0.30858022  0.62507728  0.56205476  1
  Ni  Ni37  1  0.56365976  0.30864078  0.62730237  1
  Ni  Ni38  1  0.43877807  0.69042213  0.37325555  1
  Ni  Ni39  1  0.68828270  0.43830128  0.37237175  1
  Ni  Ni40  1  0.43814501  0.62671526  0.69129560  1
  Ni  Ni41  1  0.37295892  0.43838845  0.68958249  1
  Ni  Ni42  1  0.69165054  0.37164510  0.56355789  1
  Ni  Ni43  1  0.50191574  0.30597714  0.30655725  1
  Ni  Ni44  1  0.75343976  0.43239362  0.42854876  1
  Ni  Ni45  1  0.56886141  0.24313172  0.43261289  1
  Ni  Ni46  1  0.43652395  0.56847296  0.24621826  1
  Ni  Ni47  1  0.75402692  0.56822268  0.42969177  1
  Ni  Ni48  1  0.50155211  0.68985328  0.31203861  1
  Ni  Ni49  1  0.30685423  0.49945949  0.69192991  1
  Ni  Ni50  1  0.56782146  0.43039724  0.75519583  1
  Ni  Ni51  1  0.56809263  0.56698799  0.24567996  1
  Ni  Ni52  1  0.49967877  0.69252582  0.69297718  1
  Ni  Ni53  1  0.30817291  0.30758512  0.36903654  1
  Ni  Ni54  1  0.30679083  0.30781450  0.63180687  1
  Ni  Ni55  1  0.62726614  0.30852347  0.30921515  1
  Ni  Ni56  1  0.69107853  0.30774119  0.63073379  1
  Ni  Ni57  1  0.30888360  0.37029658  0.69199192  1
  Ni  Ni58  1  0.19150317  0.50156844  0.43895083  1
  Ni  Ni59  1  0.19187100  0.44104401  0.50134665  1
  Ni  Ni60  1  0.56136676  0.50275969  0.19142748  1
  Ni  Ni61  1  0.74769993  0.31156425  0.43302596  1
  Ni  Ni62  1  0.56367932  0.19233339  0.49796313  1
  Ni  Ni63  1  0.43318004  0.31348512  0.74759850  1
  Ni  Ni64  1  0.74459279  0.56488298  0.31119156  1
  Ni  Ni65  1  0.55981599  0.74738029  0.31223613  1
  Ni  Ni66  1  0.56512948  0.25309691  0.31086919  1
  Ni  Ni67  1  0.56432126  0.31170269  0.25397882  1
  Ni  Ni68  1  0.30919909  0.74705844  0.56814550  1
  Ni  Ni69  1  0.44434035  0.68667609  0.25419423  1
  Ni  Ni70  1  0.68107823  0.43374847  0.25368716  1
  Ni  Ni71  1  0.75045664  0.43172925  0.68345835  1
  Ni  Ni72  1  0.68615374  0.75080632  0.43139970  1
  Ni  Ni73  1  0.25206200  0.43580464  0.68809320  1
  Ni  Ni74  1  0.68478144  0.24855988  0.43187580  1
  Ni  Ni75  1  0.44127755  0.49850959  0.80446050  1
  Ni  Ni76  1  0.50039882  0.44012135  0.80333889  1
  Ni  Ni77  1  0.25175640  0.56214004  0.68772757  1
  Ni  Ni78  1  0.74873484  0.57032909  0.68609311  1
  Ni  Ni79  1  0.49828664  0.81041124  0.55985063  1
  Ni  Ni80  1  0.56007491  0.81185422  0.49858703  1
  H  H81  1  0.21136630  0.34680863  0.66814381  1
  Pt  Pt82  1  0.37082766  0.50288965  0.50092686  1
  Pt  Pt83  1  0.50168296  0.37068016  0.50069630  1
  Pt  Pt84  1  0.50069339  0.49884168  0.37197251  1
  Pt  Pt85  1  0.49849115  0.62845197  0.50028276  1
  Pt  Pt86  1  0.63090172  0.49791609  0.50348143  1
  Pt  Pt87  1  0.49966930  0.49999820  0.62937513  1
  Pt  Pt88  1  0.37195281  0.49936849  0.37112247  1
  Pt  Pt89  1  0.50082642  0.37176158  0.37037290  1
  Pt  Pt90  1  0.37012664  0.37148149  0.49924603  1
  Pt  Pt91  1  0.62985086  0.37118489  0.50295601  1
  Pt  Pt92  1  0.36972066  0.62667233  0.50194094  1
  Pt  Pt93  1  0.63026541  0.49884552  0.62601521  1
  Pt  Pt94  1  0.37115527  0.37150361  0.36846706  1
  Pt  Pt95  1  0.62889911  0.37225215  0.37181047  1
  Pt  Pt96  1  0.63005045  0.37121479  0.62647898  1
  Pt  Pt97  1  0.36973863  0.62776566  0.62861762  1
  Pt  Pt98  1  0.36890485  0.37108088  0.63110261  1
  Pt  Pt99  1  0.63058772  0.63052233  0.62904575  1
  Pt  Pt100  1  0.24752355  0.50335439  0.49958696  1
  Pt  Pt101  1  0.50311555  0.50298421  0.24844097  1
  Pt  Pt102  1  0.50212377  0.24660080  0.50076287  1
  Pt  Pt103  1  0.50032952  0.75524305  0.49846228  1
  Pt  Pt104  1  0.23962679  0.49961759  0.36979255  1
  Pt  Pt105  1  0.36811781  0.23728110  0.49998831  1
  Pt  Pt106  1  0.50389872  0.24033879  0.36850543  1
  Pt  Pt107  1  0.62787580  0.49983022  0.24132727  1
  Pt  Pt108  1  0.50298906  0.36927985  0.24119840  1
  Pt  Pt109  1  0.24270561  0.62835573  0.49818651  1
  Pt  Pt110  1  0.24192277  0.50029444  0.63147337  1
  Pt  Pt111  1  0.23858513  0.37035401  0.49985261  1
  Pt  Pt112  1  0.63365322  0.49852059  0.75974678  1
  Pt  Pt113  1  0.75784738  0.36654259  0.49987168  1
  Pt  Pt114  1  0.76115168  0.63327008  0.49904928  1
  Pt  Pt115  1  0.49916035  0.76201802  0.62962010  1
  Pt  Pt116  1  0.62993316  0.76309378  0.49990588  1
  Pt  Pt117  1  0.50022801  0.62990847  0.76219371  1
  Pt  Pt118  1  0.50226554  0.23921786  0.63046488  1
  Pt  Pt119  1  0.36787806  0.75987631  0.50201951  1
  Pt  Pt120  1  0.49819974  0.36983234  0.75957215  1
  Pt  Pt121  1  0.36977970  0.49842367  0.75901312  1
  Pt  Pt122  1  0.38000825  0.62837377  0.24558692  1
  Pt  Pt123  1  0.62494389  0.62870760  0.24393069  1
  Pt  Pt124  1  0.37316166  0.36926840  0.24911057  1
  Pt  Pt125  1  0.36577880  0.24502984  0.63216627  1
  Pt  Pt126  1  0.36865573  0.24374074  0.36887644  1
  Pt  Pt127  1  0.24544135  0.36960039  0.36880100  1
  Pt  Pt128  1  0.24687292  0.36833415  0.63631138  1
  Pt  Pt129  1  0.36948432  0.62885695  0.75505519  1
  Pt  Pt130  1  0.37290693  0.75483009  0.36724037  1
  Pt  Pt131  1  0.36717495  0.75338185  0.63062605  1
  Pt  Pt132  1  0.75162436  0.62749728  0.36850296  1
  Pt  Pt133  1  0.75096437  0.36744129  0.62810036  1
  Pt  Pt134  1  0.75033579  0.37005724  0.37161370  1
  Pt  Pt135  1  0.62625114  0.24538289  0.36923649  1
  Pt  Pt136  1  0.63029322  0.37279569  0.75570826  1
  Pt  Pt137  1  0.62973332  0.75631874  0.36620248  1
  Pt  Pt138  1  0.62816293  0.75823532  0.63096166  1
  Pt  Pt139  1  0.63104880  0.24687417  0.63196255  1
  Pt  Pt140  1  0.43502932  0.50029681  0.43796263  1
  Pt  Pt141  1  0.43545577  0.43596284  0.50040418  1
  Pt  Pt142  1  0.50122162  0.43505418  0.43734070  1
  Pt  Pt143  1  0.43415020  0.50233100  0.56373064  1
  Pt  Pt144  1  0.56576617  0.49994984  0.43711712  1
  Pt  Pt145  1  0.49953732  0.56384459  0.43704959  1
  Pt  Pt146  1  0.50063587  0.43359451  0.56530940  1
  Pt  Pt147  1  0.56561653  0.43363067  0.50216452  1
  Pt  Pt148  1  0.56468537  0.56460649  0.50076531  1
  Pt  Pt149  1  0.49855846  0.56441778  0.56413201  1
  Pt  Pt150  1  0.56370159  0.49949697  0.56438418  1
  Pt  Pt151  1  0.43429700  0.37168722  0.43462785  1
  Pt  Pt152  1  0.43443589  0.43522662  0.37050535  1
  Pt  Pt153  1  0.43555066  0.62857550  0.43359407  1
  Pt  Pt154  1  0.63009396  0.43592092  0.43665807  1
  Pt  Pt155  1  0.43454492  0.43669855  0.62946079  1
  Pt  Pt156  1  0.37151610  0.56562961  0.43697395  1
  Pt  Pt157  1  0.43549603  0.37057884  0.56599359  1
  Pt  Pt158  1  0.56668222  0.43617439  0.37207410  1
  Pt  Pt159  1  0.63010342  0.56458621  0.43773960  1
  Pt  Pt160  1  0.56536447  0.62856343  0.43557805  1
  Pt  Pt161  1  0.43498155  0.56467220  0.37144142  1
  Pt  Pt162  1  0.37053975  0.43692571  0.56539054  1
  Pt  Pt163  1  0.43459860  0.62707992  0.56462282  1
  Pt  Pt164  1  0.43500008  0.56520070  0.63028484  1
  Pt  Pt165  1  0.56453809  0.43333975  0.62753876  1
  Pt  Pt166  1  0.56853343  0.56451688  0.37267015  1
  Pt  Pt167  1  0.56403612  0.62961918  0.56451939  1
  Pt  Pt168  1  0.56412028  0.56529658  0.62948279  1
  Pt  Pt169  1  0.63017021  0.56518025  0.56317446  1
  Pt  Pt170  1  0.30662213  0.50138243  0.43579873  1
  Pt  Pt171  1  0.50161039  0.30648284  0.43590467  1
  Pt  Pt172  1  0.43585722  0.30476135  0.50052001  1
  Pt  Pt173  1  0.30476342  0.43715724  0.49995843  1
  Pt  Pt174  1  0.43422641  0.50078195  0.30499753  1
  Pt  Pt175  1  0.50060018  0.43571375  0.30465039  1
  Pt  Pt176  1  0.56855669  0.50096187  0.30773386  1
  Pt  Pt177  1  0.30765110  0.50298162  0.56434071  1
  Pt  Pt178  1  0.56545738  0.30696363  0.50073730  1
  Pt  Pt179  1  0.50163930  0.56553294  0.30930278  1
  Pt  Pt180  1  0.50373769  0.30656107  0.56675680  1
  Pt  Pt181  1  0.43553877  0.49900882  0.69574795  1
  Pt  Pt182  1  0.69611164  0.49891842  0.43487438  1
  Pt  Pt183  1  0.49922905  0.69332424  0.43370603  1
  Pt  Pt184  1  0.69600203  0.43597746  0.50397534  1
  Pt  Pt185  1  0.50023091  0.43534380  0.69564451  1
  Pt  Pt186  1  0.43462509  0.69470171  0.49976478  1
  Pt  Pt187  1  0.69750499  0.56255506  0.50059819  1
  Pt  Pt188  1  0.56437718  0.49933668  0.69604941  1
  Pt  Pt189  1  0.56464144  0.69527655  0.49909268  1
  Pt  Pt190  1  0.49877883  0.69572915  0.56412604  1
  Pt  Pt191  1  0.49939050  0.56519152  0.69603259  1
  Pt  Pt192  1  0.37114809  0.30661451  0.43613979  1
  Pt  Pt193  1  0.43753818  0.30879051  0.37008226  1
  Pt  Pt194  1  0.30886062  0.62698106  0.43557892  1
  Pt  Pt195  1  0.62732269  0.30695197  0.43787174  1
  Pt  Pt196  1  0.30793488  0.37289180  0.43554540  1
  Pt  Pt197  1  0.30976755  0.43678037  0.37173265  1
  Pt  Pt198  1  0.43951018  0.62876645  0.31187233  1
  Pt  Pt199  1  0.43788220  0.30731132  0.62797455  1
  Pt  Pt200  1  0.30927412  0.43906512  0.63070971  1
  Pt  Pt201  1  0.31039587  0.56457868  0.37048505  1
  Pt  Pt202  1  0.56459901  0.62694125  0.31088318  1
  Pt  Pt203  1  0.37096674  0.30651557  0.56411752  1
  Pt  Pt204  1  0.56365828  0.30857434  0.37188682  1
  Pt  Pt205  1  0.56589164  0.37282477  0.30704942  1
  Pt  Pt206  1  0.62736095  0.30883667  0.56540077  1
  Pt  Pt207  1  0.30630917  0.37240111  0.56533117  1
  Pt  Pt208  1  0.30829610  0.56396186  0.62701156  1
  Pt  Pt209  1  0.37316254  0.69114989  0.43432537  1
  Pt  Pt210  1  0.69209202  0.37259949  0.43722445  1
  Pt  Pt211  1  0.62834670  0.69260385  0.43669103  1
  Pt  Pt212  1  0.69051746  0.62828769  0.43738300  1
  Pt  Pt213  1  0.69325472  0.43776611  0.62332082  1
  Pt  Pt214  1  0.43769716  0.68901657  0.62990239  1
  Pt  Pt215  1  0.62906768  0.43632217  0.69084403  1
  Pt  Pt216  1  0.43566727  0.37232160  0.69105390  1
  Pt  Pt217  1  0.68866042  0.56211233  0.37135294  1
  Pt  Pt218  1  0.36944743  0.69074785  0.56381019  1
  Pt  Pt219  1  0.56285399  0.69252361  0.37277368  1
  Pt  Pt220  1  0.37139854  0.56188398  0.69147871  1
  Pt  Pt221  1  0.56217386  0.37022778  0.68961501  1
  Pt  Pt222  1  0.56201831  0.62908819  0.69178751  1
  Pt  Pt223  1  0.62787951  0.69333857  0.56232630  1
  Pt  Pt224  1  0.69214051  0.62912847  0.56159193  1
  Pt  Pt225  1  0.69472005  0.56174916  0.62593898  1
  Pt  Pt226  1  0.56099269  0.69239438  0.62796364  1
  Pt  Pt227  1  0.62964355  0.56335999  0.69144651  1
  Pt  Pt228  1  0.30036417  0.30083753  0.50008160  1
  Pt  Pt229  1  0.30760655  0.50018605  0.30304677  1
  Pt  Pt230  1  0.23462520  0.43131738  0.43083434  1
  Pt  Pt231  1  0.43113447  0.23547816  0.42851232  1
  Pt  Pt232  1  0.42908304  0.43272576  0.23914259  1
  Pt  Pt233  1  0.43273814  0.76174843  0.42783974  1
  Pt  Pt234  1  0.42843955  0.42925521  0.76118277  1
  Pt  Pt235  1  0.23420899  0.57326541  0.42489207  1
  Pt  Pt236  1  0.23435355  0.42849018  0.57250544  1
  Pt  Pt237  1  0.42868966  0.23314475  0.57187961  1
  Pt  Pt238  1  0.69732741  0.29821746  0.49788486  1
  Pt  Pt239  1  0.57614016  0.42894285  0.23416448  1
  Pt  Pt240  1  0.69046590  0.49936615  0.30623973  1
  Pt  Pt241  1  0.57211779  0.76714491  0.42839369  1
  Pt  Pt242  1  0.30027818  0.69904395  0.49980089  1
  Pt  Pt243  1  0.43093529  0.56910781  0.76163273  1
  Pt  Pt244  1  0.76368689  0.42851605  0.56883142  1
  Pt  Pt245  1  0.42824486  0.76559404  0.57120620  1
  Pt  Pt246  1  0.50005839  0.30318863  0.69571422  1
  Pt  Pt247  1  0.23876537  0.57245751  0.56892120  1
  Pt  Pt248  1  0.57327230  0.23461415  0.56939106  1
  Pt  Pt249  1  0.56847557  0.76669239  0.56852870  1
  Pt  Pt250  1  0.57202522  0.56929222  0.76159822  1
  Pt  Pt251  1  0.76484716  0.57268724  0.57063748  1
  Pt  Pt252  1  0.69698343  0.70043778  0.49869845  1
  Pt  Pt253  1  0.70346677  0.49995732  0.69389521  1
  Pt  Pt254  1  0.36766068  0.30234472  0.30493717  1
  Pt  Pt255  1  0.31207283  0.63052769  0.30449838  1
  Pt  Pt256  1  0.30565934  0.36594431  0.30527204  1
  Pt  Pt257  1  0.30269444  0.62932309  0.69569221  1
  Pt  Pt258  1  0.68947154  0.36847264  0.30594407  1
  Pt  Pt259  1  0.37534111  0.69303442  0.30592824  1
  Pt  Pt260  1  0.30818347  0.69371151  0.36459182  1
  Pt  Pt261  1  0.62785204  0.69471658  0.30415477  1
  Pt  Pt262  1  0.68930753  0.62939652  0.30536182  1
  Pt  Pt263  1  0.69183687  0.30333190  0.36837031  1
  Pt  Pt264  1  0.63269270  0.30667081  0.69474218  1
  Pt  Pt265  1  0.30322088  0.69196550  0.63332996  1
  Pt  Pt266  1  0.36585028  0.30660848  0.69564095  1
  Pt  Pt267  1  0.36692156  0.69351746  0.69561414  1
  Pt  Pt268  1  0.69217430  0.69466727  0.36600799  1
  Pt  Pt269  1  0.69624612  0.36721417  0.69487956  1
  Pt  Pt270  1  0.69549532  0.63469654  0.69560097  1
  Pt  Pt271  1  0.63140463  0.69620424  0.69646693  1
  Pt  Pt272  1  0.69559373  0.69797000  0.63440788  1
  Pt  Pt273  1  0.50584157  0.18625952  0.43725084  1
  Pt  Pt274  1  0.50123747  0.44035328  0.18846084  1
  Pt  Pt275  1  0.43747477  0.50553344  0.18990461  1
  Pt  Pt276  1  0.43936591  0.18430672  0.49908847  1
  Pt  Pt277  1  0.30816808  0.24551565  0.43095014  1
  Pt  Pt278  1  0.18554111  0.50079171  0.56211502  1
  Pt  Pt279  1  0.31639319  0.43470607  0.24674264  1
  Pt  Pt280  1  0.43767607  0.24569267  0.31015654  1
  Pt  Pt281  1  0.24698767  0.43404927  0.30827363  1
  Pt  Pt282  1  0.43897145  0.31191248  0.25091097  1
  Pt  Pt283  1  0.24528745  0.30996463  0.43166826  1
  Pt  Pt284  1  0.50241128  0.56731842  0.18970046  1
  Pt  Pt285  1  0.31140370  0.75423599  0.43124628  1
  Pt  Pt286  1  0.18413507  0.56261269  0.49778957  1
  Pt  Pt287  1  0.44438716  0.74994127  0.31433401  1
  Pt  Pt288  1  0.50246181  0.18392362  0.56155525  1
  Pt  Pt289  1  0.74787218  0.43447172  0.31263966  1
  Pt  Pt290  1  0.31224136  0.43423757  0.74639889  1
  Pt  Pt291  1  0.30750212  0.24566432  0.56874202  1
  Pt  Pt292  1  0.31869052  0.56514827  0.24519963  1
  Pt  Pt293  1  0.24489452  0.31033294  0.56878981  1
  Pt  Pt294  1  0.24870741  0.56662407  0.30877530  1
  Pt  Pt295  1  0.74952647  0.30702167  0.56673187  1
  Pt  Pt296  1  0.56575215  0.31257001  0.75601826  1
  Pt  Pt297  1  0.30755181  0.56129484  0.75232853  1
  Pt  Pt298  1  0.24701622  0.68768595  0.42881484  1
  Pt  Pt299  1  0.43188128  0.24623744  0.69039362  1
  Pt  Pt300  1  0.69431407  0.43450538  0.75206227  1
  Pt  Pt301  1  0.43633559  0.68678760  0.75052380  1
  Pt  Pt302  1  0.75274679  0.69108703  0.43109086  1
  Pt  Pt303  1  0.43585272  0.75210881  0.69013009  1
  Pt  Pt304  1  0.55747405  0.68806882  0.24816379  1
  Pt  Pt305  1  0.68474683  0.56478693  0.24578295  1
  Pt  Pt306  1  0.24733311  0.68364289  0.56766730  1
  Pt  Pt307  1  0.80432836  0.49987180  0.43062757  1
  Pt  Pt308  1  0.50101051  0.81695232  0.43583091  1
  Pt  Pt309  1  0.80800604  0.43772560  0.49308691  1
  Pt  Pt310  1  0.43744225  0.81577072  0.49917163  1
  Pt  Pt311  1  0.69207950  0.56702771  0.75189903  1
  Pt  Pt312  1  0.56284088  0.69058052  0.75346456  1
  Pt  Pt313  1  0.68688323  0.24392261  0.56624857  1
  Pt  Pt314  1  0.56721240  0.24723107  0.69045340  1
  Pt  Pt315  1  0.56275152  0.75410296  0.69074528  1
  Pt  Pt316  1  0.68932515  0.75725169  0.56757336  1
  Pt  Pt317  1  0.75335690  0.69172754  0.56752858  1
  Pt  Pt318  1  0.50076844  0.55721744  0.81275326  1
  Pt  Pt319  1  0.80803038  0.56081193  0.49407058  1
  Pt  Pt320  1  0.81063321  0.50003322  0.55876392  1
  Pt  Pt321  1  0.56218750  0.49448346  0.80946130  1
