# generated using pymatgen
data_Ni81HPt240
_symmetry_space_group_name_H-M   'P 1'
_cell_length_a   30.00000000
_cell_length_b   30.00000000
_cell_length_c   30.00000000
_cell_angle_alpha   90.00000000
_cell_angle_beta   90.00000000
_cell_angle_gamma   90.00000000
_symmetry_Int_Tables_number   1
_chemical_formula_structural   Ni81HPt240
_chemical_formula_sum   'Ni81 H1 Pt240'
_cell_volume   27000.00000000
_cell_formula_units_Z   1
loop_
 _symmetry_equiv_pos_site_id
 _symmetry_equiv_pos_as_xyz
  1  'x, y, z'
loop_
 _atom_site_type_symbol
 _atom_site_label
 _atom_site_symmetry_multiplicity
 _atom_site_fract_x
 _atom_site_fract_y
 _atom_site_fract_z
 _atom_site_occupancy
  Ni  Ni0  1  0.49947028  0.49941966  0.50086683  1
  Ni  Ni1  1  0.62896290  0.49887804  0.37232735  1
  Ni  Ni2  1  0.50115027  0.62778864  0.37278043  1
  Ni  Ni3  1  0.37130890  0.50189161  0.62801185  1
  Ni  Ni4  1  0.50098800  0.37014455  0.62746431  1
  Ni  Ni5  1  0.49921199  0.62847827  0.62868120  1
  Ni  Ni6  1  0.62905811  0.63017869  0.50051798  1
  Ni  Ni7  1  0.62929342  0.62924645  0.37204885  1
  Ni  Ni8  1  0.37238854  0.62856703  0.37095579  1
  Ni  Ni9  1  0.75152441  0.49848922  0.49941054  1
  Ni  Ni10  1  0.50093059  0.49947520  0.75157990  1
  Ni  Ni11  1  0.37312631  0.50047727  0.24456314  1
  Ni  Ni12  1  0.50094072  0.62683942  0.24764078  1
  Ni  Ni13  1  0.50289275  0.75607653  0.37378950  1
  Ni  Ni14  1  0.75038684  0.49911462  0.36842392  1
  Ni  Ni15  1  0.75484113  0.49958629  0.62325035  1
  Ni  Ni16  1  0.62708728  0.24607574  0.50093356  1
  Ni  Ni17  1  0.62809498  0.36794964  0.25236662  1
  Ni  Ni18  1  0.25228472  0.62985834  0.36614067  1
  Ni  Ni19  1  0.25043309  0.62689559  0.63017770  1
  Ni  Ni20  1  0.62875065  0.62941463  0.74879546  1
  Ni  Ni21  1  0.74808132  0.63065799  0.62836140  1
  Ni  Ni22  1  0.36972592  0.37248457  0.74683596  1
  Ni  Ni23  1  0.43514294  0.56481433  0.50050515  1
  Ni  Ni24  1  0.37059440  0.43567387  0.43615668  1
  Ni  Ni25  1  0.56620713  0.37127290  0.43628179  1
  Ni  Ni26  1  0.62865088  0.43424184  0.56457810  1
  Ni  Ni27  1  0.56540295  0.37036998  0.56623326  1
  Ni  Ni28  1  0.37114053  0.56548020  0.56438121  1
  Ni  Ni29  1  0.30694055  0.56555532  0.50081834  1
  Ni  Ni30  1  0.69596903  0.50026037  0.56280324  1
  Ni  Ni31  1  0.37409034  0.43715110  0.30812450  1
  Ni  Ni32  1  0.43718973  0.37451426  0.30843038  1
  Ni  Ni33  1  0.62689829  0.43713141  0.31024957  1
  Ni  Ni34  1  0.37541727  0.56373819  0.30863367  1
  Ni  Ni35  1  0.62724173  0.56331949  0.30951836  1
  Ni  Ni36  1  0.30864999  0.62527452  0.56211854  1
  Ni  Ni37  1  0.56377198  0.30855184  0.62714980  1
  Ni  Ni38  1  0.43881626  0.69051423  0.37318163  1
  Ni  Ni39  1  0.68824067  0.43815251  0.37266263  1
  Ni  Ni40  1  0.43800550  0.62666945  0.69130553  1
  Ni  Ni41  1  0.37316038  0.43846175  0.68996100  1
  Ni  Ni42  1  0.69176872  0.37089019  0.56329902  1
  Ni  Ni43  1  0.50180862  0.30632092  0.30694355  1
  Ni  Ni44  1  0.75336383  0.43254466  0.42873198  1
  Ni  Ni45  1  0.56882110  0.24291433  0.43270231  1
  Ni  Ni46  1  0.43659443  0.56829021  0.24628598  1
  Ni  Ni47  1  0.75398715  0.56813183  0.42968769  1
  Ni  Ni48  1  0.50160513  0.68979585  0.31211596  1
  Ni  Ni49  1  0.30693357  0.49973449  0.69241351  1
  Ni  Ni50  1  0.56790583  0.43026626  0.75497830  1
  Ni  Ni51  1  0.56816901  0.56686912  0.24577212  1
  Ni  Ni52  1  0.49964075  0.69246913  0.69286940  1
  Ni  Ni53  1  0.30796069  0.30764704  0.36876262  1
  Ni  Ni54  1  0.30738930  0.30825506  0.63202675  1
  Ni  Ni55  1  0.62712400  0.30839709  0.30952200  1
  Ni  Ni56  1  0.69116172  0.30734436  0.63062457  1
  Ni  Ni57  1  0.30971846  0.37069389  0.69185640  1
  Ni  Ni58  1  0.19125679  0.50160534  0.43889309  1
  Ni  Ni59  1  0.19203933  0.44105007  0.50136630  1
  Ni  Ni60  1  0.56140256  0.50259753  0.19150456  1
  Ni  Ni61  1  0.74725669  0.31142884  0.43351139  1
  Ni  Ni62  1  0.56349310  0.19210964  0.49792898  1
  Ni  Ni63  1  0.43340204  0.31358057  0.74770800  1
  Ni  Ni64  1  0.74457288  0.56489068  0.31127130  1
  Ni  Ni65  1  0.55985682  0.74736369  0.31221249  1
  Ni  Ni66  1  0.56485914  0.25301120  0.31117447  1
  Ni  Ni67  1  0.56420270  0.31164871  0.25418948  1
  Ni  Ni68  1  0.30917712  0.74712678  0.56810319  1
  Ni  Ni69  1  0.44441550  0.68669575  0.25422521  1
  Ni  Ni70  1  0.68116734  0.43370758  0.25392819  1
  Ni  Ni71  1  0.75065836  0.43168715  0.68297076  1
  Ni  Ni72  1  0.68615449  0.75077646  0.43142225  1
  Ni  Ni73  1  0.25265948  0.43521880  0.68811225  1
  Ni  Ni74  1  0.68415486  0.24823858  0.43241751  1
  Ni  Ni75  1  0.44142476  0.49861479  0.80441829  1
  Ni  Ni76  1  0.50057293  0.44022163  0.80321069  1
  Ni  Ni77  1  0.25171048  0.56222080  0.68768985  1
  Ni  Ni78  1  0.74888572  0.57011473  0.68589938  1
  Ni  Ni79  1  0.49817932  0.81032838  0.55993074  1
  Ni  Ni80  1  0.56002360  0.81175559  0.49865220  1
  H  H81  1  0.78817279  0.28177282  0.59650296  1
  Pt  Pt82  1  0.37081603  0.50315249  0.50080100  1
  Pt  Pt83  1  0.50152267  0.37061492  0.50091923  1
  Pt  Pt84  1  0.50073402  0.49879542  0.37214511  1
  Pt  Pt85  1  0.49854974  0.62856374  0.50032107  1
  Pt  Pt86  1  0.63077903  0.49809758  0.50350384  1
  Pt  Pt87  1  0.49959027  0.50010700  0.62942665  1
  Pt  Pt88  1  0.37201355  0.49944198  0.37104161  1
  Pt  Pt89  1  0.50073707  0.37182231  0.37070064  1
  Pt  Pt90  1  0.36920935  0.37135037  0.49967061  1
  Pt  Pt91  1  0.62981611  0.37128478  0.50326935  1
  Pt  Pt92  1  0.36976287  0.62686736  0.50187401  1
  Pt  Pt93  1  0.63043210  0.49873670  0.62587825  1
  Pt  Pt94  1  0.37097292  0.37147141  0.36858886  1
  Pt  Pt95  1  0.62884610  0.37217879  0.37200239  1
  Pt  Pt96  1  0.63021035  0.37108726  0.62623242  1
  Pt  Pt97  1  0.36975096  0.62783781  0.62866550  1
  Pt  Pt98  1  0.36922216  0.37122568  0.63084830  1
  Pt  Pt99  1  0.63062330  0.63057234  0.62893763  1
  Pt  Pt100  1  0.24757826  0.50366287  0.49920740  1
  Pt  Pt101  1  0.50319052  0.50282762  0.24854057  1
  Pt  Pt102  1  0.50208727  0.24655207  0.50084497  1
  Pt  Pt103  1  0.50032606  0.75523861  0.49848126  1
  Pt  Pt104  1  0.23941349  0.49966105  0.36977015  1
  Pt  Pt105  1  0.36765338  0.23742643  0.50016947  1
  Pt  Pt106  1  0.50369200  0.24038249  0.36880549  1
  Pt  Pt107  1  0.62788780  0.49973347  0.24149499  1
  Pt  Pt108  1  0.50288557  0.36931476  0.24130648  1
  Pt  Pt109  1  0.24262600  0.62847117  0.49809385  1
  Pt  Pt110  1  0.24213018  0.50003707  0.63158014  1
  Pt  Pt111  1  0.23891697  0.37035297  0.50034072  1
  Pt  Pt112  1  0.63382777  0.49840272  0.75957515  1
  Pt  Pt113  1  0.75705437  0.36650133  0.50073481  1
  Pt  Pt114  1  0.76117393  0.63332338  0.49892553  1
  Pt  Pt115  1  0.49907333  0.76197772  0.62968448  1
  Pt  Pt116  1  0.62990701  0.76309816  0.49995195  1
  Pt  Pt117  1  0.50046606  0.62980481  0.76204309  1
  Pt  Pt118  1  0.50227266  0.23914813  0.63042598  1
  Pt  Pt119  1  0.36785368  0.75991288  0.50202561  1
  Pt  Pt120  1  0.49839260  0.36999651  0.75947464  1
  Pt  Pt121  1  0.36984988  0.49873908  0.75927651  1
  Pt  Pt122  1  0.38005407  0.62834048  0.24558194  1
  Pt  Pt123  1  0.62487082  0.62862069  0.24397618  1
  Pt  Pt124  1  0.37331318  0.36925494  0.24898188  1
  Pt  Pt125  1  0.36593246  0.24516656  0.63248398  1
  Pt  Pt126  1  0.36852139  0.24388334  0.36888855  1
  Pt  Pt127  1  0.24552331  0.36980175  0.36857158  1
  Pt  Pt128  1  0.24866457  0.36940115  0.63526766  1
  Pt  Pt129  1  0.36940562  0.62909887  0.75516057  1
  Pt  Pt130  1  0.37292721  0.75489581  0.36715923  1
  Pt  Pt131  1  0.36714230  0.75335313  0.63061161  1
  Pt  Pt132  1  0.75147321  0.62755354  0.36852272  1
  Pt  Pt133  1  0.75080917  0.36761871  0.62753219  1
  Pt  Pt134  1  0.75025676  0.36988116  0.37186380  1
  Pt  Pt135  1  0.62608084  0.24516847  0.36928615  1
  Pt  Pt136  1  0.63043156  0.37266125  0.75551924  1
  Pt  Pt137  1  0.62973068  0.75641339  0.36618382  1
  Pt  Pt138  1  0.62826372  0.75820693  0.63093456  1
  Pt  Pt139  1  0.63109900  0.24653728  0.63190067  1
  Pt  Pt140  1  0.43501293  0.50042418  0.43799893  1
  Pt  Pt141  1  0.43527468  0.43591999  0.50042817  1
  Pt  Pt142  1  0.50105737  0.43494282  0.43752261  1
  Pt  Pt143  1  0.43412172  0.50243449  0.56367121  1
  Pt  Pt144  1  0.56565869  0.50002295  0.43720010  1
  Pt  Pt145  1  0.49959006  0.56399745  0.43706163  1
  Pt  Pt146  1  0.50048295  0.43372217  0.56534954  1
  Pt  Pt147  1  0.56545416  0.43371394  0.50225782  1
  Pt  Pt148  1  0.56467260  0.56479906  0.50084840  1
  Pt  Pt149  1  0.49848047  0.56450008  0.56415876  1
  Pt  Pt150  1  0.56358722  0.49964094  0.56448429  1
  Pt  Pt151  1  0.43353407  0.37147467  0.43520598  1
  Pt  Pt152  1  0.43437072  0.43510229  0.37085347  1
  Pt  Pt153  1  0.43569200  0.62875720  0.43353215  1
  Pt  Pt154  1  0.63002720  0.43598544  0.43684352  1
  Pt  Pt155  1  0.43443043  0.43689838  0.62953555  1
  Pt  Pt156  1  0.37159157  0.56584737  0.43688518  1
  Pt  Pt157  1  0.43534356  0.37055735  0.56599434  1
  Pt  Pt158  1  0.56658927  0.43604366  0.37222018  1
  Pt  Pt159  1  0.63007998  0.56471716  0.43780297  1
  Pt  Pt160  1  0.56541095  0.62867719  0.43563227  1
  Pt  Pt161  1  0.43505422  0.56476765  0.37142631  1
  Pt  Pt162  1  0.37052595  0.43745822  0.56527442  1
  Pt  Pt163  1  0.43460442  0.62710607  0.56471053  1
  Pt  Pt164  1  0.43485789  0.56516990  0.63035048  1
  Pt  Pt165  1  0.56457073  0.43327184  0.62742086  1
  Pt  Pt166  1  0.56863976  0.56454368  0.37273106  1
  Pt  Pt167  1  0.56402639  0.62973524  0.56465336  1
  Pt  Pt168  1  0.56408011  0.56536514  0.62945145  1
  Pt  Pt169  1  0.63018403  0.56526742  0.56321737  1
  Pt  Pt170  1  0.30671195  0.50160840  0.43554107  1
  Pt  Pt171  1  0.50143171  0.30655798  0.43609301  1
  Pt  Pt172  1  0.43575264  0.30456426  0.50057192  1
  Pt  Pt173  1  0.30457643  0.43763345  0.49966387  1
  Pt  Pt174  1  0.43437448  0.50070722  0.30517151  1
  Pt  Pt175  1  0.50055871  0.43560589  0.30484430  1
  Pt  Pt176  1  0.56857240  0.50079615  0.30791106  1
  Pt  Pt177  1  0.30751431  0.50326051  0.56418694  1
  Pt  Pt178  1  0.56546055  0.30691306  0.50089499  1
  Pt  Pt179  1  0.50182921  0.56546386  0.30939001  1
  Pt  Pt180  1  0.50372392  0.30652379  0.56679896  1
  Pt  Pt181  1  0.43557143  0.49918943  0.69591671  1
  Pt  Pt182  1  0.69598216  0.49895125  0.43495389  1
  Pt  Pt183  1  0.49933704  0.69346268  0.43373512  1
  Pt  Pt184  1  0.69582396  0.43610777  0.50416360  1
  Pt  Pt185  1  0.50032496  0.43536144  0.69544748  1
  Pt  Pt186  1  0.43467837  0.69469402  0.49975212  1
  Pt  Pt187  1  0.69753614  0.56258797  0.50065054  1
  Pt  Pt188  1  0.56456890  0.49929026  0.69582163  1
  Pt  Pt189  1  0.56468006  0.69536769  0.49922981  1
  Pt  Pt190  1  0.49872417  0.69575841  0.56416790  1
  Pt  Pt191  1  0.49934570  0.56520811  0.69604196  1
  Pt  Pt192  1  0.37061298  0.30654366  0.43651908  1
  Pt  Pt193  1  0.43738002  0.30887758  0.37035528  1
  Pt  Pt194  1  0.30884427  0.62708799  0.43550019  1
  Pt  Pt195  1  0.62710717  0.30690201  0.43786177  1
  Pt  Pt196  1  0.30768595  0.37284477  0.43553203  1
  Pt  Pt197  1  0.30970329  0.43689031  0.37165609  1
  Pt  Pt198  1  0.43964143  0.62869681  0.31173165  1
  Pt  Pt199  1  0.43793995  0.30729202  0.62814536  1
  Pt  Pt200  1  0.30979945  0.43966522  0.63088892  1
  Pt  Pt201  1  0.31042791  0.56468565  0.37040551  1
  Pt  Pt202  1  0.56465048  0.62697705  0.31090320  1
  Pt  Pt203  1  0.37086006  0.30624498  0.56407241  1
  Pt  Pt204  1  0.56356088  0.30858100  0.37204496  1
  Pt  Pt205  1  0.56591696  0.37278084  0.30704564  1
  Pt  Pt206  1  0.62746408  0.30848494  0.56544982  1
  Pt  Pt207  1  0.30694306  0.37262600  0.56462807  1
  Pt  Pt208  1  0.30829563  0.56409570  0.62707143  1
  Pt  Pt209  1  0.37324460  0.69125033  0.43417744  1
  Pt  Pt210  1  0.69207598  0.37264430  0.43745722  1
  Pt  Pt211  1  0.62835240  0.69265803  0.43672365  1
  Pt  Pt212  1  0.69053876  0.62834616  0.43743545  1
  Pt  Pt213  1  0.69338298  0.43748816  0.62286581  1
  Pt  Pt214  1  0.43766333  0.68905393  0.62995077  1
  Pt  Pt215  1  0.62923085  0.43618712  0.69060198  1
  Pt  Pt216  1  0.43573093  0.37236248  0.69104897  1
  Pt  Pt217  1  0.68862665  0.56206508  0.37142330  1
  Pt  Pt218  1  0.36947562  0.69085059  0.56385047  1
  Pt  Pt219  1  0.56297617  0.69259360  0.37277430  1
  Pt  Pt220  1  0.37137735  0.56211035  0.69170593  1
  Pt  Pt221  1  0.56230526  0.37018051  0.68945969  1
  Pt  Pt222  1  0.56207119  0.62902861  0.69173078  1
  Pt  Pt223  1  0.62796100  0.69342084  0.56242645  1
  Pt  Pt224  1  0.69221435  0.62918374  0.56161180  1
  Pt  Pt225  1  0.69489575  0.56168513  0.62581478  1
  Pt  Pt226  1  0.56094446  0.69244410  0.62802723  1
  Pt  Pt227  1  0.62973099  0.56339426  0.69122030  1
  Pt  Pt228  1  0.29823239  0.29901314  0.50038828  1
  Pt  Pt229  1  0.30775036  0.50023999  0.30299286  1
  Pt  Pt230  1  0.23460892  0.43137560  0.43083015  1
  Pt  Pt231  1  0.43081750  0.23550140  0.42860143  1
  Pt  Pt232  1  0.42921169  0.43277982  0.23928439  1
  Pt  Pt233  1  0.43278931  0.76182169  0.42776015  1
  Pt  Pt234  1  0.42864215  0.42943195  0.76102967  1
  Pt  Pt235  1  0.23408813  0.57333836  0.42481181  1
  Pt  Pt236  1  0.23288668  0.42815709  0.57295759  1
  Pt  Pt237  1  0.42871500  0.23333467  0.57199345  1
  Pt  Pt238  1  0.69671108  0.29927736  0.49852752  1
  Pt  Pt239  1  0.57612624  0.42884540  0.23418002  1
  Pt  Pt240  1  0.69045711  0.49930464  0.30642493  1
  Pt  Pt241  1  0.57215275  0.76718943  0.42843162  1
  Pt  Pt242  1  0.30035465  0.69895908  0.49979215  1
  Pt  Pt243  1  0.43090684  0.56938506  0.76188448  1
  Pt  Pt244  1  0.76392982  0.42916382  0.56858610  1
  Pt  Pt245  1  0.42809014  0.76567493  0.57120901  1
  Pt  Pt246  1  0.50017700  0.30322871  0.69571168  1
  Pt  Pt247  1  0.23891794  0.57264632  0.56887611  1
  Pt  Pt248  1  0.57322101  0.23438109  0.56937469  1
  Pt  Pt249  1  0.56842413  0.76673937  0.56865356  1
  Pt  Pt250  1  0.57232437  0.56907928  0.76150379  1
  Pt  Pt251  1  0.76492942  0.57267685  0.57046601  1
  Pt  Pt252  1  0.69701051  0.70047979  0.49869128  1
  Pt  Pt253  1  0.70345035  0.49970770  0.69365091  1
  Pt  Pt254  1  0.36768237  0.30242036  0.30496224  1
  Pt  Pt255  1  0.31207155  0.63051993  0.30449731  1
  Pt  Pt256  1  0.30573146  0.36609154  0.30506004  1
  Pt  Pt257  1  0.30261436  0.62953194  0.69573312  1
  Pt  Pt258  1  0.68939343  0.36831136  0.30618272  1
  Pt  Pt259  1  0.37541952  0.69304089  0.30588322  1
  Pt  Pt260  1  0.30822894  0.69368246  0.36458976  1
  Pt  Pt261  1  0.62786470  0.69474988  0.30408323  1
  Pt  Pt262  1  0.68924613  0.62940309  0.30541028  1
  Pt  Pt263  1  0.69172042  0.30308111  0.36879054  1
  Pt  Pt264  1  0.63274888  0.30655067  0.69444951  1
  Pt  Pt265  1  0.30319852  0.69200494  0.63329135  1
  Pt  Pt266  1  0.36617876  0.30673235  0.69582993  1
  Pt  Pt267  1  0.36690431  0.69362383  0.69565404  1
  Pt  Pt268  1  0.69210346  0.69468282  0.36596820  1
  Pt  Pt269  1  0.69620910  0.36713362  0.69456205  1
  Pt  Pt270  1  0.69554373  0.63454523  0.69538510  1
  Pt  Pt271  1  0.63148358  0.69606428  0.69632016  1
  Pt  Pt272  1  0.69569011  0.69795144  0.63431429  1
  Pt  Pt273  1  0.50558143  0.18616468  0.43740597  1
  Pt  Pt274  1  0.50133073  0.44033065  0.18841988  1
  Pt  Pt275  1  0.43760505  0.50548198  0.18991078  1
  Pt  Pt276  1  0.43899511  0.18442317  0.49916841  1
  Pt  Pt277  1  0.30775414  0.24558307  0.43069843  1
  Pt  Pt278  1  0.18587567  0.50097495  0.56196567  1
  Pt  Pt279  1  0.31649081  0.43469202  0.24663256  1
  Pt  Pt280  1  0.43772485  0.24579681  0.31028840  1
  Pt  Pt281  1  0.24706164  0.43432266  0.30804630  1
  Pt  Pt282  1  0.43905801  0.31177874  0.25093788  1
  Pt  Pt283  1  0.24498173  0.31018468  0.43138419  1
  Pt  Pt284  1  0.50254174  0.56714196  0.18977427  1
  Pt  Pt285  1  0.31144703  0.75422492  0.43125984  1
  Pt  Pt286  1  0.18407693  0.56270540  0.49782132  1
  Pt  Pt287  1  0.44445818  0.74998452  0.31431557  1
  Pt  Pt288  1  0.50226353  0.18376186  0.56144033  1
  Pt  Pt289  1  0.74776606  0.43436368  0.31301325  1
  Pt  Pt290  1  0.31255765  0.43426477  0.74682304  1
  Pt  Pt291  1  0.30726089  0.24559025  0.56956824  1
  Pt  Pt292  1  0.31862872  0.56521372  0.24519256  1
  Pt  Pt293  1  0.24477741  0.31058285  0.57013734  1
  Pt  Pt294  1  0.24860139  0.56655119  0.30878338  1
  Pt  Pt295  1  0.75090700  0.30521713  0.56779438  1
  Pt  Pt296  1  0.56582569  0.31248694  0.75584366  1
  Pt  Pt297  1  0.30743852  0.56159700  0.75239994  1
  Pt  Pt298  1  0.24694761  0.68770835  0.42874781  1
  Pt  Pt299  1  0.43212613  0.24613497  0.69065773  1
  Pt  Pt300  1  0.69445750  0.43431850  0.75182833  1
  Pt  Pt301  1  0.43647200  0.68672145  0.75050511  1
  Pt  Pt302  1  0.75273557  0.69119802  0.43102676  1
  Pt  Pt303  1  0.43584197  0.75215002  0.69021198  1
  Pt  Pt304  1  0.55742568  0.68811416  0.24818410  1
  Pt  Pt305  1  0.68477524  0.56469563  0.24598487  1
  Pt  Pt306  1  0.24730139  0.68364267  0.56765713  1
  Pt  Pt307  1  0.80436586  0.49983925  0.43064512  1
  Pt  Pt308  1  0.50101521  0.81698875  0.43587421  1
  Pt  Pt309  1  0.80824953  0.43758779  0.49301180  1
  Pt  Pt310  1  0.43745518  0.81576953  0.49918387  1
  Pt  Pt311  1  0.69221527  0.56683362  0.75167748  1
  Pt  Pt312  1  0.56288458  0.69061954  0.75333115  1
  Pt  Pt313  1  0.68631154  0.24284302  0.56550199  1
  Pt  Pt314  1  0.56723917  0.24709570  0.69031342  1
  Pt  Pt315  1  0.56284878  0.75414198  0.69072587  1
  Pt  Pt316  1  0.68949420  0.75725579  0.56750941  1
  Pt  Pt317  1  0.75348100  0.69170144  0.56743185  1
  Pt  Pt318  1  0.50097673  0.55707546  0.81249191  1
  Pt  Pt319  1  0.80809361  0.56093447  0.49394573  1
  Pt  Pt320  1  0.81129282  0.50034166  0.55857033  1
  Pt  Pt321  1  0.56250519  0.49429606  0.80943745  1
