# generated using pymatgen
data_Ni81HPt240
_symmetry_space_group_name_H-M   'P 1'
_cell_length_a   30.00000000
_cell_length_b   30.00000000
_cell_length_c   30.00000000
_cell_angle_alpha   90.00000000
_cell_angle_beta   90.00000000
_cell_angle_gamma   90.00000000
_symmetry_Int_Tables_number   1
_chemical_formula_structural   Ni81HPt240
_chemical_formula_sum   'Ni81 H1 Pt240'
_cell_volume   27000.00000000
_cell_formula_units_Z   1
loop_
 _symmetry_equiv_pos_site_id
 _symmetry_equiv_pos_as_xyz
  1  'x, y, z'
loop_
 _atom_site_type_symbol
 _atom_site_label
 _atom_site_symmetry_multiplicity
 _atom_site_fract_x
 _atom_site_fract_y
 _atom_site_fract_z
 _atom_site_occupancy
  Ni  Ni0  1  0.49964173  0.49938399  0.50090761  1
  Ni  Ni1  1  0.62847055  0.49879208  0.37237355  1
  Ni  Ni2  1  0.50096361  0.62770077  0.37301200  1
  Ni  Ni3  1  0.37147312  0.50145077  0.62839678  1
  Ni  Ni4  1  0.50135199  0.37034955  0.62754013  1
  Ni  Ni5  1  0.49910721  0.62835365  0.62853327  1
  Ni  Ni6  1  0.62884086  0.63043519  0.50054328  1
  Ni  Ni7  1  0.62888410  0.62954803  0.37231237  1
  Ni  Ni8  1  0.37257541  0.62897459  0.37060398  1
  Ni  Ni9  1  0.75095637  0.49854701  0.49810971  1
  Ni  Ni10  1  0.50121292  0.49939722  0.75160532  1
  Ni  Ni11  1  0.37377421  0.50043340  0.24440637  1
  Ni  Ni12  1  0.50075051  0.62662803  0.24745019  1
  Ni  Ni13  1  0.50340983  0.75700394  0.37447012  1
  Ni  Ni14  1  0.74996533  0.49913179  0.36853279  1
  Ni  Ni15  1  0.75486265  0.50011296  0.62283830  1
  Ni  Ni16  1  0.62671336  0.24550228  0.50106052  1
  Ni  Ni17  1  0.62769415  0.36759986  0.25230004  1
  Ni  Ni18  1  0.25312250  0.62990222  0.36591405  1
  Ni  Ni19  1  0.25026191  0.62619108  0.63016640  1
  Ni  Ni20  1  0.62821437  0.62970847  0.74837840  1
  Ni  Ni21  1  0.74772995  0.63125934  0.62805762  1
  Ni  Ni22  1  0.36977596  0.37280150  0.74684757  1
  Ni  Ni23  1  0.43524741  0.56478794  0.50053388  1
  Ni  Ni24  1  0.37087269  0.43548553  0.43629718  1
  Ni  Ni25  1  0.56607722  0.37093628  0.43638198  1
  Ni  Ni26  1  0.62924236  0.43390722  0.56443238  1
  Ni  Ni27  1  0.56562769  0.37014052  0.56628420  1
  Ni  Ni28  1  0.37102545  0.56450449  0.56543981  1
  Ni  Ni29  1  0.30710339  0.56546972  0.50073054  1
  Ni  Ni30  1  0.69618647  0.50043750  0.56248572  1
  Ni  Ni31  1  0.37436934  0.43683655  0.30846199  1
  Ni  Ni32  1  0.43717985  0.37405255  0.30881953  1
  Ni  Ni33  1  0.62643214  0.43676170  0.31050914  1
  Ni  Ni34  1  0.37578958  0.56400854  0.30879609  1
  Ni  Ni35  1  0.62671073  0.56320504  0.30985736  1
  Ni  Ni36  1  0.30880592  0.62460287  0.56256293  1
  Ni  Ni37  1  0.56374851  0.30821641  0.62742107  1
  Ni  Ni38  1  0.43860958  0.69068205  0.37282449  1
  Ni  Ni39  1  0.68756965  0.43792580  0.37263101  1
  Ni  Ni40  1  0.43803977  0.62640015  0.69130616  1
  Ni  Ni41  1  0.37315270  0.43839407  0.69007932  1
  Ni  Ni42  1  0.69164981  0.37135038  0.56348783  1
  Ni  Ni43  1  0.50163846  0.30622970  0.30725746  1
  Ni  Ni44  1  0.75275901  0.43270843  0.42799280  1
  Ni  Ni45  1  0.56856987  0.24225890  0.43278940  1
  Ni  Ni46  1  0.43618708  0.56801234  0.24627201  1
  Ni  Ni47  1  0.75320544  0.56765297  0.42910712  1
  Ni  Ni48  1  0.50156616  0.68983967  0.31322045  1
  Ni  Ni49  1  0.30683500  0.49933364  0.69277666  1
  Ni  Ni50  1  0.56830254  0.43038695  0.75463756  1
  Ni  Ni51  1  0.56784659  0.56680043  0.24616306  1
  Ni  Ni52  1  0.49931430  0.69266406  0.69252044  1
  Ni  Ni53  1  0.30823263  0.30758162  0.36875876  1
  Ni  Ni54  1  0.30721528  0.30849724  0.63224125  1
  Ni  Ni55  1  0.62670561  0.30802079  0.30957794  1
  Ni  Ni56  1  0.69078905  0.30730608  0.63035586  1
  Ni  Ni57  1  0.30956009  0.37066211  0.69204175  1
  Ni  Ni58  1  0.19167522  0.50156789  0.43845282  1
  Ni  Ni59  1  0.19228371  0.44114346  0.50097577  1
  Ni  Ni60  1  0.56118545  0.50239791  0.19169815  1
  Ni  Ni61  1  0.74709330  0.31095332  0.43311465  1
  Ni  Ni62  1  0.56316601  0.19200705  0.49826902  1
  Ni  Ni63  1  0.43342262  0.31391186  0.74796399  1
  Ni  Ni64  1  0.74388483  0.56526568  0.31150404  1
  Ni  Ni65  1  0.55888055  0.74791833  0.31277068  1
  Ni  Ni66  1  0.56418030  0.25243140  0.31157788  1
  Ni  Ni67  1  0.56380499  0.31113906  0.25443584  1
  Ni  Ni68  1  0.30897580  0.74661637  0.56788126  1
  Ni  Ni69  1  0.44546429  0.68763659  0.25448113  1
  Ni  Ni70  1  0.68039888  0.43381355  0.25404373  1
  Ni  Ni71  1  0.75087317  0.43166823  0.68269423  1
  Ni  Ni72  1  0.68573357  0.75156071  0.43170989  1
  Ni  Ni73  1  0.25241389  0.43508827  0.68833675  1
  Ni  Ni74  1  0.68461005  0.24774069  0.43204626  1
  Ni  Ni75  1  0.44181511  0.49819485  0.80464192  1
  Ni  Ni76  1  0.50103596  0.44016986  0.80345531  1
  Ni  Ni77  1  0.25164394  0.56154290  0.68820385  1
  Ni  Ni78  1  0.74885801  0.57097349  0.68581236  1
  Ni  Ni79  1  0.49747576  0.81054298  0.56013594  1
  Ni  Ni80  1  0.55931874  0.81209261  0.49915510  1
  H  H81  1  0.35680468  0.79693318  0.33484060  1
  Pt  Pt82  1  0.37084524  0.50307534  0.50088691  1
  Pt  Pt83  1  0.50173272  0.37050127  0.50113757  1
  Pt  Pt84  1  0.50069099  0.49882309  0.37235077  1
  Pt  Pt85  1  0.49813004  0.62871095  0.50027123  1
  Pt  Pt86  1  0.63097142  0.49800674  0.50349240  1
  Pt  Pt87  1  0.49982577  0.49991009  0.62922276  1
  Pt  Pt88  1  0.37247437  0.49939596  0.37137649  1
  Pt  Pt89  1  0.50074028  0.37152639  0.37111393  1
  Pt  Pt90  1  0.36939200  0.37126768  0.49998183  1
  Pt  Pt91  1  0.62974104  0.37071467  0.50311881  1
  Pt  Pt92  1  0.36985175  0.62580054  0.50246848  1
  Pt  Pt93  1  0.63067717  0.49900739  0.62569014  1
  Pt  Pt94  1  0.37116072  0.37134409  0.36889972  1
  Pt  Pt95  1  0.62858710  0.37161734  0.37236359  1
  Pt  Pt96  1  0.63018462  0.37113591  0.62613456  1
  Pt  Pt97  1  0.36964735  0.62724573  0.62890535  1
  Pt  Pt98  1  0.36929113  0.37132522  0.63103142  1
  Pt  Pt99  1  0.63037984  0.63096077  0.62874561  1
  Pt  Pt100  1  0.24789760  0.50353676  0.49896736  1
  Pt  Pt101  1  0.50287043  0.50240178  0.24868539  1
  Pt  Pt102  1  0.50170191  0.24627957  0.50123883  1
  Pt  Pt103  1  0.49956035  0.75542941  0.49860635  1
  Pt  Pt104  1  0.24009134  0.49979083  0.36944486  1
  Pt  Pt105  1  0.36740941  0.23724815  0.50055120  1
  Pt  Pt106  1  0.50345454  0.23993122  0.36925957  1
  Pt  Pt107  1  0.62751610  0.49989842  0.24164028  1
  Pt  Pt108  1  0.50287577  0.36906447  0.24145403  1
  Pt  Pt109  1  0.24301142  0.62795453  0.49778362  1
  Pt  Pt110  1  0.24179338  0.49984212  0.63178851  1
  Pt  Pt111  1  0.23910776  0.37049866  0.49997414  1
  Pt  Pt112  1  0.63423676  0.49877306  0.75919518  1
  Pt  Pt113  1  0.75748777  0.36594962  0.50015217  1
  Pt  Pt114  1  0.76099191  0.63395583  0.49892608  1
  Pt  Pt115  1  0.49828732  0.76212979  0.62960983  1
  Pt  Pt116  1  0.62945713  0.76374117  0.50013326  1
  Pt  Pt117  1  0.50032856  0.62958528  0.76197312  1
  Pt  Pt118  1  0.50214752  0.23902989  0.63071813  1
  Pt  Pt119  1  0.36728898  0.75997013  0.50234208  1
  Pt  Pt120  1  0.49879804  0.36999737  0.75948343  1
  Pt  Pt121  1  0.36997548  0.49810243  0.75958092  1
  Pt  Pt122  1  0.38090553  0.62912510  0.24532892  1
  Pt  Pt123  1  0.62407692  0.62899000  0.24440855  1
  Pt  Pt124  1  0.37365224  0.36884291  0.24863310  1
  Pt  Pt125  1  0.36582750  0.24527191  0.63271319  1
  Pt  Pt126  1  0.36868335  0.24382702  0.36912308  1
  Pt  Pt127  1  0.24591651  0.36997501  0.36827422  1
  Pt  Pt128  1  0.24860595  0.36957631  0.63515157  1
  Pt  Pt129  1  0.36976821  0.62853906  0.75509308  1
  Pt  Pt130  1  0.37168725  0.75775467  0.36589472  1
  Pt  Pt131  1  0.36656508  0.75315945  0.63072637  1
  Pt  Pt132  1  0.75095310  0.62792109  0.36871232  1
  Pt  Pt133  1  0.75105949  0.36690305  0.62756381  1
  Pt  Pt134  1  0.74967228  0.36949893  0.37176751  1
  Pt  Pt135  1  0.62565886  0.24465581  0.36951238  1
  Pt  Pt136  1  0.63079565  0.37271290  0.75512396  1
  Pt  Pt137  1  0.62943266  0.75703170  0.36646139  1
  Pt  Pt138  1  0.62785243  0.75894934  0.63074598  1
  Pt  Pt139  1  0.63102257  0.24610085  0.63223675  1
  Pt  Pt140  1  0.43525162  0.50034633  0.43827906  1
  Pt  Pt141  1  0.43541031  0.43582668  0.50064800  1
  Pt  Pt142  1  0.50109796  0.43484715  0.43772881  1
  Pt  Pt143  1  0.43434113  0.50232779  0.56363119  1
  Pt  Pt144  1  0.56564046  0.49988822  0.43737462  1
  Pt  Pt145  1  0.49950191  0.56411922  0.43720775  1
  Pt  Pt146  1  0.50079851  0.43367284  0.56533220  1
  Pt  Pt147  1  0.56571005  0.43347508  0.50229982  1
  Pt  Pt148  1  0.56460140  0.56490259  0.50083138  1
  Pt  Pt149  1  0.49857637  0.56446393  0.56414617  1
  Pt  Pt150  1  0.56390570  0.49961510  0.56418809  1
  Pt  Pt151  1  0.43374443  0.37126333  0.43561505  1
  Pt  Pt152  1  0.43455184  0.43488633  0.37123757  1
  Pt  Pt153  1  0.43510852  0.62911661  0.43347398  1
  Pt  Pt154  1  0.62983430  0.43560499  0.43697646  1
  Pt  Pt155  1  0.43469723  0.43679269  0.62954447  1
  Pt  Pt156  1  0.37178816  0.56571259  0.43694530  1
  Pt  Pt157  1  0.43550324  0.37061007  0.56625114  1
  Pt  Pt158  1  0.56641468  0.43581765  0.37246149  1
  Pt  Pt159  1  0.62986879  0.56478448  0.43791435  1
  Pt  Pt160  1  0.56511999  0.62886227  0.43580685  1
  Pt  Pt161  1  0.43519829  0.56494240  0.37154153  1
  Pt  Pt162  1  0.37056290  0.43744856  0.56549625  1
  Pt  Pt163  1  0.43450278  0.62681378  0.56478800  1
  Pt  Pt164  1  0.43496333  0.56481261  0.63049048  1
  Pt  Pt165  1  0.56493053  0.43344403  0.62731639  1
  Pt  Pt166  1  0.56834502  0.56446088  0.37288488  1
  Pt  Pt167  1  0.56391744  0.62995721  0.56447564  1
  Pt  Pt168  1  0.56422487  0.56535658  0.62921112  1
  Pt  Pt169  1  0.63024151  0.56543474  0.56304008  1
  Pt  Pt170  1  0.30694851  0.50157500  0.43541914  1
  Pt  Pt171  1  0.50131616  0.30621855  0.43645945  1
  Pt  Pt172  1  0.43566631  0.30465672  0.50099001  1
  Pt  Pt173  1  0.30493070  0.43756240  0.49967099  1
  Pt  Pt174  1  0.43432924  0.50058587  0.30546780  1
  Pt  Pt175  1  0.50044757  0.43531797  0.30524023  1
  Pt  Pt176  1  0.56822216  0.50052829  0.30803716  1
  Pt  Pt177  1  0.30744587  0.50292030  0.56428092  1
  Pt  Pt178  1  0.56529242  0.30649069  0.50108031  1
  Pt  Pt179  1  0.50147117  0.56542380  0.30925457  1
  Pt  Pt180  1  0.50376545  0.30644710  0.56705711  1
  Pt  Pt181  1  0.43580721  0.49873171  0.69615244  1
  Pt  Pt182  1  0.69530545  0.49883823  0.43465838  1
  Pt  Pt183  1  0.49891384  0.69360901  0.43358677  1
  Pt  Pt184  1  0.69596351  0.43578438  0.50417391  1
  Pt  Pt185  1  0.50072380  0.43535690  0.69536789  1
  Pt  Pt186  1  0.43364962  0.69456307  0.49930500  1
  Pt  Pt187  1  0.69757157  0.56288075  0.50047385  1
  Pt  Pt188  1  0.56483263  0.49926063  0.69560635  1
  Pt  Pt189  1  0.56414980  0.69571303  0.49912649  1
  Pt  Pt190  1  0.49800409  0.69577962  0.56398233  1
  Pt  Pt191  1  0.49946269  0.56491731  0.69576188  1
  Pt  Pt192  1  0.37057826  0.30649683  0.43677967  1
  Pt  Pt193  1  0.43738691  0.30863754  0.37068267  1
  Pt  Pt194  1  0.30971561  0.62742653  0.43534207  1
  Pt  Pt195  1  0.62707073  0.30616645  0.43817068  1
  Pt  Pt196  1  0.30796149  0.37288266  0.43558767  1
  Pt  Pt197  1  0.31008701  0.43687912  0.37163225  1
  Pt  Pt198  1  0.43959895  0.62901415  0.31175054  1
  Pt  Pt199  1  0.43802909  0.30731537  0.62837166  1
  Pt  Pt200  1  0.30971001  0.43955759  0.63113850  1
  Pt  Pt201  1  0.31111984  0.56484549  0.37034075  1
  Pt  Pt202  1  0.56417419  0.62706951  0.31132166  1
  Pt  Pt203  1  0.37078011  0.30632181  0.56445684  1
  Pt  Pt204  1  0.56340169  0.30814218  0.37239432  1
  Pt  Pt205  1  0.56572758  0.37238096  0.30732010  1
  Pt  Pt206  1  0.62726366  0.30816740  0.56554470  1
  Pt  Pt207  1  0.30695199  0.37259628  0.56469102  1
  Pt  Pt208  1  0.30814826  0.56342716  0.62756323  1
  Pt  Pt209  1  0.37327553  0.69253430  0.43249175  1
  Pt  Pt210  1  0.69185224  0.37224625  0.43758536  1
  Pt  Pt211  1  0.62812805  0.69303187  0.43703641  1
  Pt  Pt212  1  0.69026981  0.62862260  0.43752093  1
  Pt  Pt213  1  0.69368134  0.43796667  0.62277933  1
  Pt  Pt214  1  0.43730670  0.68888618  0.62991102  1
  Pt  Pt215  1  0.62959234  0.43637275  0.69034558  1
  Pt  Pt216  1  0.43598091  0.37246718  0.69111136  1
  Pt  Pt217  1  0.68796696  0.56227799  0.37138478  1
  Pt  Pt218  1  0.36938166  0.69041559  0.56407728  1
  Pt  Pt219  1  0.56298340  0.69291375  0.37317543  1
  Pt  Pt220  1  0.37150893  0.56150570  0.69189783  1
  Pt  Pt221  1  0.56257832  0.37008746  0.68936524  1
  Pt  Pt222  1  0.56173553  0.62927810  0.69143333  1
  Pt  Pt223  1  0.62763605  0.69399408  0.56226877  1
  Pt  Pt224  1  0.69197872  0.62974047  0.56129824  1
  Pt  Pt225  1  0.69496190  0.56218654  0.62562682  1
  Pt  Pt226  1  0.56060041  0.69272064  0.62776686  1
  Pt  Pt227  1  0.62989941  0.56358815  0.69092022  1
  Pt  Pt228  1  0.29833461  0.29907844  0.50040642  1
  Pt  Pt229  1  0.30896435  0.50024603  0.30288675  1
  Pt  Pt230  1  0.23507996  0.43146163  0.43054282  1
  Pt  Pt231  1  0.43069837  0.23561976  0.42923026  1
  Pt  Pt232  1  0.42942489  0.43250471  0.23953343  1
  Pt  Pt233  1  0.43272855  0.76131714  0.42748740  1
  Pt  Pt234  1  0.42913692  0.42922933  0.76115591  1
  Pt  Pt235  1  0.23467355  0.57335304  0.42432048  1
  Pt  Pt236  1  0.23333095  0.42834052  0.57271737  1
  Pt  Pt237  1  0.42869148  0.23359050  0.57222546  1
  Pt  Pt238  1  0.69681717  0.29766794  0.49797024  1
  Pt  Pt239  1  0.57595620  0.42867186  0.23465026  1
  Pt  Pt240  1  0.69003573  0.49928926  0.30657739  1
  Pt  Pt241  1  0.57196034  0.76790231  0.42877913  1
  Pt  Pt242  1  0.30139284  0.69748284  0.49976110  1
  Pt  Pt243  1  0.43123121  0.56867231  0.76174745  1
  Pt  Pt244  1  0.76433903  0.42798134  0.56869759  1
  Pt  Pt245  1  0.42747001  0.76572894  0.57122474  1
  Pt  Pt246  1  0.50024015  0.30339993  0.69577259  1
  Pt  Pt247  1  0.23919942  0.57217686  0.56857549  1
  Pt  Pt248  1  0.57320560  0.23373470  0.56975632  1
  Pt  Pt249  1  0.56759892  0.76661394  0.56860517  1
  Pt  Pt250  1  0.57196577  0.56896275  0.76067873  1
  Pt  Pt251  1  0.76496982  0.57344581  0.57014571  1
  Pt  Pt252  1  0.69669940  0.70109972  0.49867625  1
  Pt  Pt253  1  0.70428700  0.50018633  0.69349266  1
  Pt  Pt254  1  0.36804543  0.30250486  0.30520538  1
  Pt  Pt255  1  0.31296856  0.63106193  0.30429146  1
  Pt  Pt256  1  0.30627061  0.36634333  0.30496169  1
  Pt  Pt257  1  0.30248112  0.62893072  0.69592445  1
  Pt  Pt258  1  0.68884178  0.36816443  0.30620416  1
  Pt  Pt259  1  0.37593485  0.69415311  0.30545844  1
  Pt  Pt260  1  0.30834870  0.69427609  0.36441665  1
  Pt  Pt261  1  0.62717610  0.69529718  0.30445121  1
  Pt  Pt262  1  0.68863393  0.62997175  0.30559931  1
  Pt  Pt263  1  0.69124342  0.30268859  0.36855864  1
  Pt  Pt264  1  0.63282010  0.30628440  0.69452684  1
  Pt  Pt265  1  0.30304090  0.69134818  0.63319714  1
  Pt  Pt266  1  0.36623990  0.30697431  0.69599281  1
  Pt  Pt267  1  0.36682165  0.69309333  0.69558582  1
  Pt  Pt268  1  0.69156418  0.69507186  0.36638547  1
  Pt  Pt269  1  0.69630987  0.36707715  0.69402905  1
  Pt  Pt270  1  0.69513027  0.63516180  0.69515022  1
  Pt  Pt271  1  0.63100930  0.69672191  0.69606332  1
  Pt  Pt272  1  0.69525650  0.69855175  0.63398985  1
  Pt  Pt273  1  0.50507954  0.18581804  0.43790617  1
  Pt  Pt274  1  0.50135484  0.43997708  0.18849468  1
  Pt  Pt275  1  0.43772541  0.50508905  0.18963984  1
  Pt  Pt276  1  0.43852937  0.18414945  0.49964875  1
  Pt  Pt277  1  0.30786721  0.24544255  0.43091895  1
  Pt  Pt278  1  0.18599644  0.50084837  0.56163976  1
  Pt  Pt279  1  0.31736722  0.43469612  0.24637202  1
  Pt  Pt280  1  0.43782349  0.24551789  0.31059197  1
  Pt  Pt281  1  0.24776646  0.43466295  0.30765881  1
  Pt  Pt282  1  0.43923805  0.31140503  0.25093183  1
  Pt  Pt283  1  0.24536388  0.31024908  0.43112219  1
  Pt  Pt284  1  0.50248304  0.56672031  0.18995413  1
  Pt  Pt285  1  0.31095299  0.75434534  0.43185726  1
  Pt  Pt286  1  0.18441789  0.56250160  0.49726905  1
  Pt  Pt287  1  0.44553812  0.75053928  0.31478368  1
  Pt  Pt288  1  0.50195873  0.18362116  0.56178908  1
  Pt  Pt289  1  0.74714707  0.43424361  0.31311881  1
  Pt  Pt290  1  0.31230425  0.43405988  0.74708920  1
  Pt  Pt291  1  0.30708265  0.24577030  0.56977626  1
  Pt  Pt292  1  0.31989916  0.56557936  0.24503865  1
  Pt  Pt293  1  0.24458791  0.31078217  0.56990490  1
  Pt  Pt294  1  0.24989234  0.56653177  0.30837717  1
  Pt  Pt295  1  0.74916834  0.30607349  0.56661538  1
  Pt  Pt296  1  0.56611137  0.31244593  0.75591322  1
  Pt  Pt297  1  0.30769569  0.56108049  0.75268082  1
  Pt  Pt298  1  0.24718454  0.68751157  0.42873450  1
  Pt  Pt299  1  0.43201067  0.24637679  0.69107983  1
  Pt  Pt300  1  0.69470646  0.43451766  0.75130816  1
  Pt  Pt301  1  0.43649429  0.68662989  0.75046655  1
  Pt  Pt302  1  0.75248415  0.69176412  0.43111615  1
  Pt  Pt303  1  0.43527827  0.75212330  0.69015472  1
  Pt  Pt304  1  0.55647517  0.68850098  0.24869552  1
  Pt  Pt305  1  0.68402729  0.56504474  0.24642037  1
  Pt  Pt306  1  0.24735739  0.68288972  0.56745271  1
  Pt  Pt307  1  0.80479888  0.49976158  0.43006670  1
  Pt  Pt308  1  0.50057804  0.81748950  0.43643233  1
  Pt  Pt309  1  0.80726593  0.43733629  0.49238008  1
  Pt  Pt310  1  0.43671047  0.81577105  0.49917341  1
  Pt  Pt311  1  0.69221845  0.56736542  0.75130559  1
  Pt  Pt312  1  0.56230859  0.69090453  0.75304038  1
  Pt  Pt313  1  0.68643619  0.24295268  0.56614157  1
  Pt  Pt314  1  0.56703904  0.24694213  0.69059379  1
  Pt  Pt315  1  0.56227141  0.75455451  0.69040868  1
  Pt  Pt316  1  0.68909887  0.75811894  0.56731870  1
  Pt  Pt317  1  0.75317339  0.69252833  0.56725673  1
  Pt  Pt318  1  0.50125820  0.55697106  0.81269252  1
  Pt  Pt319  1  0.80736750  0.56120702  0.49310525  1
  Pt  Pt320  1  0.80963919  0.50025214  0.55743325  1
  Pt  Pt321  1  0.56290267  0.49437679  0.80909737  1
