# generated using pymatgen
data_HPt94Au149
_symmetry_space_group_name_H-M   'P 1'
_cell_length_a   30.00000000
_cell_length_b   30.00000000
_cell_length_c   30.00000000
_cell_angle_alpha   90.00000000
_cell_angle_beta   90.00000000
_cell_angle_gamma   90.00000000
_symmetry_Int_Tables_number   1
_chemical_formula_structural   HPt94Au149
_chemical_formula_sum   'H1 Pt94 Au149'
_cell_volume   27000.00000000
_cell_formula_units_Z   1
loop_
 _symmetry_equiv_pos_site_id
 _symmetry_equiv_pos_as_xyz
  1  'x, y, z'
loop_
 _atom_site_type_symbol
 _atom_site_label
 _atom_site_symmetry_multiplicity
 _atom_site_fract_x
 _atom_site_fract_y
 _atom_site_fract_z
 _atom_site_occupancy
  H  H0  1  0.31532866  0.71593852  0.67658104  1
  Pt  Pt1  1  0.57970268  0.44953588  0.22025894  1
  Pt  Pt2  1  0.72281077  0.50078428  0.30932952  1
  Pt  Pt3  1  0.64934598  0.47470225  0.26717357  1
  Pt  Pt4  1  0.42592132  0.55790722  0.21985631  1
  Pt  Pt5  1  0.57872078  0.61163106  0.30642052  1
  Pt  Pt6  1  0.57826878  0.53075535  0.25829027  1
  Pt  Pt7  1  0.50293835  0.58398706  0.25799280  1
  Pt  Pt8  1  0.72532506  0.65869207  0.39839971  1
  Pt  Pt9  1  0.72527967  0.58192385  0.35243768  1
  Pt  Pt10  1  0.65394903  0.63875348  0.34968936  1
  Pt  Pt11  1  0.42590165  0.71035097  0.30917480  1
  Pt  Pt12  1  0.42610079  0.63207186  0.26685320  1
  Pt  Pt13  1  0.57394754  0.76572631  0.39817964  1
  Pt  Pt14  1  0.57883208  0.69146159  0.34983738  1
  Pt  Pt15  1  0.50151626  0.73962002  0.35226570  1
  Pt  Pt16  1  0.58405756  0.29224581  0.31330650  1
  Pt  Pt17  1  0.72758258  0.34244892  0.40610293  1
  Pt  Pt18  1  0.65428200  0.31147649  0.36326425  1
  Pt  Pt19  1  0.42404599  0.39242189  0.30773342  1
  Pt  Pt20  1  0.42341660  0.31502752  0.26113662  1
  Pt  Pt21  1  0.35157251  0.36623913  0.26083797  1
  Pt  Pt22  1  0.57589051  0.44569733  0.40548144  1
  Pt  Pt23  1  0.57544685  0.36541810  0.35985504  1
  Pt  Pt24  1  0.49747960  0.41724345  0.35693797  1
  Pt  Pt25  1  0.73202855  0.50077956  0.49573629  1
  Pt  Pt26  1  0.73072592  0.42002490  0.45205554  1
  Pt  Pt27  1  0.65440714  0.47481265  0.45275765  1
  Pt  Pt28  1  0.80530229  0.52353190  0.54225603  1
  Pt  Pt29  1  0.27581580  0.50994037  0.31293019  1
  Pt  Pt30  1  0.42343487  0.55320233  0.40500919  1
  Pt  Pt31  1  0.42267912  0.46996975  0.35656493  1
  Pt  Pt32  1  0.34788814  0.52596076  0.35934521  1
  Pt  Pt33  1  0.57851253  0.61102262  0.49905377  1
  Pt  Pt34  1  0.57747838  0.52856299  0.45096399  1
  Pt  Pt35  1  0.50107166  0.58238421  0.45066399  1
  Pt  Pt36  1  0.72699713  0.65904314  0.58748965  1
  Pt  Pt37  1  0.73199928  0.58067461  0.54490172  1
  Pt  Pt38  1  0.65392393  0.63683549  0.54526392  1
  Pt  Pt39  1  0.27582175  0.66201447  0.40532919  1
  Pt  Pt40  1  0.27067633  0.58223884  0.36320719  1
  Pt  Pt41  1  0.42307282  0.71838086  0.49631921  1
  Pt  Pt42  1  0.42486521  0.63679280  0.45251857  1
  Pt  Pt43  1  0.34782319  0.69006528  0.45215743  1
  Pt  Pt44  1  0.57427971  0.76708976  0.58758536  1
  Pt  Pt45  1  0.57760486  0.69080909  0.54537874  1
  Pt  Pt46  1  0.49873947  0.74542388  0.54492841  1
  Pt  Pt47  1  0.41979200  0.79500972  0.54312538  1
  Pt  Pt48  1  0.42576744  0.23304051  0.41230297  1
  Pt  Pt49  1  0.57677002  0.28120693  0.50414108  1
  Pt  Pt50  1  0.58030815  0.20466125  0.45760046  1
  Pt  Pt51  1  0.50138498  0.25440345  0.45492005  1
  Pt  Pt52  1  0.72423898  0.33828454  0.59464107  1
  Pt  Pt53  1  0.65217197  0.30954479  0.54817312  1
  Pt  Pt54  1  0.27303397  0.34088298  0.41245178  1
  Pt  Pt55  1  0.42161354  0.38897667  0.50104013  1
  Pt  Pt56  1  0.42231400  0.30924843  0.45472061  1
  Pt  Pt57  1  0.34613832  0.36318928  0.45475131  1
  Pt  Pt58  1  0.57662281  0.44681262  0.59508395  1
  Pt  Pt59  1  0.57509525  0.36304233  0.54753914  1
  Pt  Pt60  1  0.49890156  0.41765397  0.54938134  1
  Pt  Pt61  1  0.72422404  0.49004034  0.68709195  1
  Pt  Pt62  1  0.72920797  0.41793394  0.63687027  1
  Pt  Pt63  1  0.65209876  0.47414289  0.64069913  1
  Pt  Pt64  1  0.26812163  0.49923644  0.50412897  1
  Pt  Pt65  1  0.26808142  0.41928243  0.45501532  1
  Pt  Pt66  1  0.19495087  0.47653074  0.45764777  1
  Pt  Pt67  1  0.42393104  0.55458864  0.59471173  1
  Pt  Pt68  1  0.42245171  0.47157497  0.54932121  1
  Pt  Pt69  1  0.34549236  0.52537751  0.54712098  1
  Pt  Pt70  1  0.57635745  0.60764657  0.69213573  1
  Pt  Pt71  1  0.57766294  0.53002761  0.64347901  1
  Pt  Pt72  1  0.50288992  0.58253318  0.64297973  1
  Pt  Pt73  1  0.64867396  0.63371277  0.73937879  1
  Pt  Pt74  1  0.27191970  0.65735622  0.59384661  1
  Pt  Pt75  1  0.26939573  0.57984919  0.54803706  1
  Pt  Pt76  1  0.41814089  0.70922606  0.68638399  1
  Pt  Pt77  1  0.42401921  0.63513797  0.64059980  1
  Pt  Pt78  1  0.34312133  0.69054311  0.64081590  1
  Pt  Pt79  1  0.57694925  0.68512517  0.73882242  1
  Pt  Pt80  1  0.42600682  0.23454440  0.60172172  1
  Pt  Pt81  1  0.57395006  0.28967107  0.69077781  1
  Pt  Pt82  1  0.49822922  0.26044109  0.64782523  1
  Pt  Pt83  1  0.27446445  0.34124652  0.60142570  1
  Pt  Pt84  1  0.42131552  0.38853882  0.69367650  1
  Pt  Pt85  1  0.42104977  0.30858816  0.65050511  1
  Pt  Pt86  1  0.34595836  0.36141805  0.65026914  1
  Pt  Pt87  1  0.57420359  0.44228524  0.78019771  1
  Pt  Pt88  1  0.57419651  0.36801826  0.73325260  1
  Pt  Pt89  1  0.49726668  0.41632134  0.74204693  1
  Pt  Pt90  1  0.27714564  0.49897811  0.69022516  1
  Pt  Pt91  1  0.27465868  0.41783243  0.64754910  1
  Pt  Pt92  1  0.42039584  0.55096584  0.77913390  1
  Pt  Pt93  1  0.42171672  0.46933639  0.74185487  1
  Pt  Pt94  1  0.35074979  0.52513331  0.73241757  1
  Au  Au95  1  0.58062315  0.61342828  0.21652047  1
  Au  Au96  1  0.50334556  0.50439890  0.21074837  1
  Au  Au97  1  0.65827026  0.64624136  0.25854318  1
  Au  Au98  1  0.65766868  0.56151974  0.29427265  1
  Au  Au99  1  0.58453681  0.69782142  0.25860247  1
  Au  Au100  1  0.50475976  0.66900644  0.29400662  1
  Au  Au101  1  0.65390861  0.71827288  0.39952084  1
  Au  Au102  1  0.42221953  0.38897981  0.20585545  1
  Au  Au103  1  0.49878534  0.33355416  0.21501117  1
  Au  Au104  1  0.49968113  0.41806534  0.25315333  1
  Au  Au105  1  0.57917796  0.36318108  0.25560910  1
  Au  Au106  1  0.57453523  0.44379585  0.31157545  1
  Au  Au107  1  0.50175075  0.33273771  0.30796776  1
  Au  Au108  1  0.65560555  0.38633491  0.30658318  1
  Au  Au109  1  0.65372537  0.47244993  0.35925491  1
  Au  Au110  1  0.73484778  0.41749524  0.35203185  1
  Au  Au111  1  0.73895799  0.50127564  0.39983040  1
  Au  Au112  1  0.65281308  0.39320073  0.40589579  1
  Au  Au113  1  0.80783366  0.43773075  0.40846420  1
  Au  Au114  1  0.81654657  0.52250140  0.45166788  1
  Au  Au115  1  0.81483771  0.44173269  0.49981338  1
  Au  Au116  1  0.34418876  0.44291878  0.21385093  1
  Au  Au117  1  0.34439419  0.52863646  0.25491725  1
  Au  Au118  1  0.42307217  0.47188486  0.25278586  1
  Au  Au119  1  0.42205431  0.55122923  0.31086356  1
  Au  Au120  1  0.34129444  0.44585093  0.30725284  1
  Au  Au121  1  0.49929981  0.49894263  0.30665681  1
  Au  Au122  1  0.50116694  0.58398480  0.35337129  1
  Au  Au123  1  0.57898484  0.52920562  0.35371551  1
  Au  Au124  1  0.57827350  0.61067025  0.40250017  1
  Au  Au125  1  0.50063003  0.50082667  0.40344696  1
  Au  Au126  1  0.65578671  0.55556992  0.40336561  1
  Au  Au127  1  0.65562119  0.63796181  0.45098517  1
  Au  Au128  1  0.74316506  0.58259720  0.44475968  1
  Au  Au129  1  0.73481433  0.66436763  0.49491893  1
  Au  Au130  1  0.65545124  0.55601014  0.49787800  1
  Au  Au131  1  0.80973112  0.60519869  0.50441403  1
  Au  Au132  1  0.34101117  0.60837171  0.30636419  1
  Au  Au133  1  0.34410084  0.69353242  0.35167916  1
  Au  Au134  1  0.42289814  0.63558494  0.35888694  1
  Au  Au135  1  0.42124282  0.72517175  0.39990589  1
  Au  Au136  1  0.34832005  0.60801568  0.40558177  1
  Au  Au137  1  0.50047858  0.66527042  0.40335251  1
  Au  Au138  1  0.49654553  0.75628373  0.44469620  1
  Au  Au139  1  0.57787201  0.69295283  0.45102325  1
  Au  Au140  1  0.57616128  0.77649124  0.49507803  1
  Au  Au141  1  0.50094417  0.66498781  0.49788449  1
  Au  Au142  1  0.65682721  0.72238062  0.49980354  1
  Au  Au143  1  0.65493241  0.71888169  0.59614804  1
  Au  Au144  1  0.33772790  0.76858484  0.40933678  1
  Au  Au145  1  0.41499499  0.80474249  0.45235188  1
  Au  Au146  1  0.33952280  0.77618033  0.50074815  1
  Au  Au147  1  0.49482146  0.82671408  0.50440432  1
  Au  Au148  1  0.50165868  0.25025316  0.35799485  1
  Au  Au149  1  0.57682643  0.27831614  0.40430769  1
  Au  Au150  1  0.65356857  0.22602621  0.40613028  1
  Au  Au151  1  0.65865984  0.30400305  0.45550149  1
  Au  Au152  1  0.73349086  0.33477743  0.50044699  1
  Au  Au153  1  0.66055736  0.22261641  0.50023424  1
  Au  Au154  1  0.34724206  0.28448213  0.30325981  1
  Au  Au155  1  0.33865810  0.36157320  0.35233525  1
  Au  Au156  1  0.42299592  0.30216953  0.35256011  1
  Au  Au157  1  0.42055810  0.38761792  0.40288477  1
  Au  Au158  1  0.34520290  0.28118379  0.40382258  1
  Au  Au159  1  0.49834008  0.33432757  0.40437999  1
  Au  Au160  1  0.49899085  0.41695362  0.45282991  1
  Au  Au161  1  0.57702098  0.36115248  0.45352841  1
  Au  Au162  1  0.57704170  0.44577183  0.50030267  1
  Au  Au163  1  0.49906786  0.33483577  0.50219541  1
  Au  Au164  1  0.65488610  0.39056475  0.50007849  1
  Au  Au165  1  0.65703695  0.47395731  0.54676141  1
  Au  Au166  1  0.73764344  0.41593381  0.54477161  1
  Au  Au167  1  0.73497560  0.50172013  0.59583009  1
  Au  Au168  1  0.65156766  0.39199123  0.59439852  1
  Au  Au169  1  0.81008675  0.44729819  0.59366868  1
  Au  Au170  1  0.26334790  0.41804739  0.35794823  1
  Au  Au171  1  0.26531514  0.49829884  0.40408220  1
  Au  Au172  1  0.34419600  0.44289869  0.40395954  1
  Au  Au173  1  0.34312624  0.52601425  0.45313526  1
  Au  Au174  1  0.42185145  0.47109020  0.45256185  1
  Au  Au175  1  0.42303270  0.55411894  0.49981604  1
  Au  Au176  1  0.34462934  0.44397171  0.50208866  1
  Au  Au177  1  0.50000881  0.49998401  0.50002588  1
  Au  Au178  1  0.50128005  0.58295226  0.54723454  1
  Au  Au179  1  0.57836355  0.52872600  0.54763432  1
  Au  Au180  1  0.57967985  0.61250140  0.59709810  1
  Au  Au181  1  0.49934310  0.49930709  0.59655914  1
  Au  Au182  1  0.65602424  0.55703031  0.59600900  1
  Au  Au183  1  0.66135419  0.63826902  0.64760243  1
  Au  Au184  1  0.73676279  0.58189375  0.64203438  1
  Au  Au185  1  0.65910277  0.55429633  0.69316219  1
  Au  Au186  1  0.19032993  0.55265721  0.40622046  1
  Au  Au187  1  0.26246125  0.58421428  0.45536721  1
  Au  Au188  1  0.26647819  0.66539892  0.49963691  1
  Au  Au189  1  0.18487030  0.55833910  0.49976064  1
  Au  Au190  1  0.34504227  0.60906795  0.49997953  1
  Au  Au191  1  0.34189422  0.69442405  0.54560306  1
  Au  Au192  1  0.42310809  0.63828240  0.54654536  1
  Au  Au193  1  0.42283317  0.72047841  0.59542262  1
  Au  Au194  1  0.34718327  0.60827946  0.59482917  1
  Au  Au195  1  0.50163160  0.66554464  0.59574888  1
  Au  Au196  1  0.49815611  0.74957777  0.64191620  1
  Au  Au197  1  0.57713228  0.69823419  0.64752813  1
  Au  Au198  1  0.49869198  0.66661972  0.69190060  1
  Au  Au199  1  0.65316516  0.71531607  0.69654779  1
  Au  Au200  1  0.34660454  0.77328440  0.59415149  1
  Au  Au201  1  0.42401680  0.22359998  0.50480261  1
  Au  Au202  1  0.50514292  0.17303606  0.49582420  1
  Au  Au203  1  0.50341566  0.24343459  0.55530767  1
  Au  Au204  1  0.58460423  0.19415786  0.54821457  1
  Au  Au205  1  0.57854040  0.27461591  0.60013433  1
  Au  Au206  1  0.66138157  0.23095085  0.59158301  1
  Au  Au207  1  0.65581442  0.30662673  0.64827312  1
  Au  Au208  1  0.26489786  0.33582596  0.50472426  1
  Au  Au209  1  0.34307286  0.27790185  0.50014905  1
  Au  Au210  1  0.34422119  0.36215183  0.54897885  1
  Au  Au211  1  0.42195930  0.30709925  0.54893773  1
  Au  Au212  1  0.42160483  0.38937412  0.59752971  1
  Au  Au213  1  0.34615681  0.28199482  0.60055654  1
  Au  Au214  1  0.49933285  0.33466472  0.59663385  1
  Au  Au215  1  0.49868997  0.41606596  0.64648508  1
  Au  Au216  1  0.57697941  0.36442723  0.64109990  1
  Au  Au217  1  0.57780388  0.44875910  0.68911016  1
  Au  Au218  1  0.49537093  0.33135066  0.70577811  1
  Au  Au219  1  0.65927299  0.39201248  0.69374719  1
  Au  Au220  1  0.65573006  0.47143103  0.74508029  1
  Au  Au221  1  0.19007543  0.39490685  0.49548807  1
  Au  Au222  1  0.18338068  0.47748227  0.54815790  1
  Au  Au223  1  0.25683355  0.41741513  0.55510855  1
  Au  Au224  1  0.26085580  0.49862603  0.60007752  1
  Au  Au225  1  0.34399465  0.44467190  0.59664133  1
  Au  Au226  1  0.34596608  0.52807427  0.64024990  1
  Au  Au227  1  0.42081652  0.47091593  0.64642345  1
  Au  Au228  1  0.42560980  0.55650838  0.68815253  1
  Au  Au229  1  0.34227427  0.43849753  0.70579196  1
  Au  Au230  1  0.50066697  0.50114720  0.69329294  1
  Au  Au231  1  0.50058026  0.58222615  0.74666326  1
  Au  Au232  1  0.57722545  0.52813857  0.74682364  1
  Au  Au233  1  0.57773791  0.61105096  0.79409424  1
  Au  Au234  1  0.49688074  0.49627751  0.78884853  1
  Au  Au235  1  0.65560111  0.55707484  0.78652549  1
  Au  Au236  1  0.19194610  0.56229473  0.59105763  1
  Au  Au237  1  0.26493041  0.58240413  0.64791085  1
  Au  Au238  1  0.34397894  0.61272759  0.69440319  1
  Au  Au239  1  0.42098789  0.63759421  0.74375113  1
  Au  Au240  1  0.50146355  0.66674522  0.78492927  1
  Au  Au241  1  0.34217211  0.35382928  0.74131734  1
  Au  Au242  1  0.41582378  0.30205843  0.74166544  1
  Au  Au243  1  0.41991882  0.38653817  0.78359576  1
