# generated using pymatgen
data_HPt94Au149
_symmetry_space_group_name_H-M   'P 1'
_cell_length_a   30.00000000
_cell_length_b   30.00000000
_cell_length_c   30.00000000
_cell_angle_alpha   90.00000000
_cell_angle_beta   90.00000000
_cell_angle_gamma   90.00000000
_symmetry_Int_Tables_number   1
_chemical_formula_structural   HPt94Au149
_chemical_formula_sum   'H1 Pt94 Au149'
_cell_volume   27000.00000000
_cell_formula_units_Z   1
loop_
 _symmetry_equiv_pos_site_id
 _symmetry_equiv_pos_as_xyz
  1  'x, y, z'
loop_
 _atom_site_type_symbol
 _atom_site_label
 _atom_site_symmetry_multiplicity
 _atom_site_fract_x
 _atom_site_fract_y
 _atom_site_fract_z
 _atom_site_occupancy
  H  H0  1  0.13316884  0.56529521  0.49584162  1
  Pt  Pt1  1  0.57952797  0.44935439  0.22035112  1
  Pt  Pt2  1  0.72287084  0.50050484  0.30940583  1
  Pt  Pt3  1  0.64922720  0.47452723  0.26728141  1
  Pt  Pt4  1  0.42580455  0.55783790  0.21979799  1
  Pt  Pt5  1  0.57869741  0.61151807  0.30640694  1
  Pt  Pt6  1  0.57820620  0.53074083  0.25838203  1
  Pt  Pt7  1  0.50280949  0.58384431  0.25815633  1
  Pt  Pt8  1  0.72549664  0.65855601  0.39847430  1
  Pt  Pt9  1  0.72536674  0.58185822  0.35231742  1
  Pt  Pt10  1  0.65396183  0.63848278  0.35003170  1
  Pt  Pt11  1  0.42604091  0.71030088  0.30928299  1
  Pt  Pt12  1  0.42600278  0.63208673  0.26675635  1
  Pt  Pt13  1  0.57413612  0.76558854  0.39832165  1
  Pt  Pt14  1  0.57900456  0.69135560  0.34978208  1
  Pt  Pt15  1  0.50188574  0.73951527  0.35217414  1
  Pt  Pt16  1  0.58439562  0.29245563  0.31297150  1
  Pt  Pt17  1  0.72776252  0.34245252  0.40611759  1
  Pt  Pt18  1  0.65455428  0.31146269  0.36307789  1
  Pt  Pt19  1  0.42385022  0.39256173  0.30775118  1
  Pt  Pt20  1  0.42330039  0.31507009  0.26127130  1
  Pt  Pt21  1  0.35145027  0.36625887  0.26092321  1
  Pt  Pt22  1  0.57591119  0.44563110  0.40547139  1
  Pt  Pt23  1  0.57536260  0.36528453  0.35989511  1
  Pt  Pt24  1  0.49737272  0.41722069  0.35698435  1
  Pt  Pt25  1  0.73192842  0.50058505  0.49576346  1
  Pt  Pt26  1  0.73068722  0.41995075  0.45213098  1
  Pt  Pt27  1  0.65442899  0.47478117  0.45272896  1
  Pt  Pt28  1  0.80526941  0.52340147  0.54212141  1
  Pt  Pt29  1  0.27589508  0.51035981  0.31288840  1
  Pt  Pt30  1  0.42335418  0.55334288  0.40511559  1
  Pt  Pt31  1  0.42271997  0.47014198  0.35671111  1
  Pt  Pt32  1  0.34790909  0.52614183  0.35948759  1
  Pt  Pt33  1  0.57835479  0.61103272  0.49892083  1
  Pt  Pt34  1  0.57744035  0.52855307  0.45082613  1
  Pt  Pt35  1  0.50102096  0.58254445  0.45090231  1
  Pt  Pt36  1  0.72709542  0.65865973  0.58752909  1
  Pt  Pt37  1  0.73191416  0.58047338  0.54482101  1
  Pt  Pt38  1  0.65386005  0.63660763  0.54534652  1
  Pt  Pt39  1  0.27578448  0.66192925  0.40582953  1
  Pt  Pt40  1  0.27060204  0.58247766  0.36339816  1
  Pt  Pt41  1  0.42325658  0.71898440  0.49587769  1
  Pt  Pt42  1  0.42473500  0.63714486  0.45257314  1
  Pt  Pt43  1  0.34782695  0.69089030  0.45189438  1
  Pt  Pt44  1  0.57423624  0.76682212  0.58779559  1
  Pt  Pt45  1  0.57774475  0.69063160  0.54532731  1
  Pt  Pt46  1  0.49858426  0.74574854  0.54522450  1
  Pt  Pt47  1  0.41981840  0.79552124  0.54240353  1
  Pt  Pt48  1  0.42548990  0.23341326  0.41255058  1
  Pt  Pt49  1  0.57676107  0.28112520  0.50395267  1
  Pt  Pt50  1  0.58049080  0.20456501  0.45766864  1
  Pt  Pt51  1  0.50149446  0.25422743  0.45453029  1
  Pt  Pt52  1  0.72431691  0.33833148  0.59479573  1
  Pt  Pt53  1  0.65245985  0.30938387  0.54832440  1
  Pt  Pt54  1  0.27271381  0.34121693  0.41259835  1
  Pt  Pt55  1  0.42181542  0.38896433  0.50116324  1
  Pt  Pt56  1  0.42183021  0.30972129  0.45462377  1
  Pt  Pt57  1  0.34570578  0.36413852  0.45523016  1
  Pt  Pt58  1  0.57653944  0.44675900  0.59499424  1
  Pt  Pt59  1  0.57515983  0.36294015  0.54753112  1
  Pt  Pt60  1  0.49884503  0.41771749  0.54913669  1
  Pt  Pt61  1  0.72417345  0.49054226  0.68688724  1
  Pt  Pt62  1  0.72920945  0.41800538  0.63696229  1
  Pt  Pt63  1  0.65209800  0.47409602  0.64059412  1
  Pt  Pt64  1  0.26629750  0.50046893  0.50364813  1
  Pt  Pt65  1  0.26867669  0.41924102  0.45596106  1
  Pt  Pt66  1  0.19505390  0.47345341  0.45682309  1
  Pt  Pt67  1  0.42382185  0.55462323  0.59455047  1
  Pt  Pt68  1  0.42238144  0.47187580  0.54921821  1
  Pt  Pt69  1  0.34447648  0.52570807  0.54717865  1
  Pt  Pt70  1  0.57604827  0.60759137  0.69217733  1
  Pt  Pt71  1  0.57727245  0.52999171  0.64327616  1
  Pt  Pt72  1  0.50241884  0.58275603  0.64301681  1
  Pt  Pt73  1  0.64868399  0.63404623  0.73912925  1
  Pt  Pt74  1  0.27272236  0.65791668  0.59446120  1
  Pt  Pt75  1  0.26804475  0.58101983  0.54816274  1
  Pt  Pt76  1  0.41630108  0.70825975  0.68708044  1
  Pt  Pt77  1  0.42458037  0.63499762  0.64031968  1
  Pt  Pt78  1  0.34612412  0.68888346  0.63708546  1
  Pt  Pt79  1  0.57658731  0.68501296  0.73884267  1
  Pt  Pt80  1  0.42617520  0.23440829  0.60179641  1
  Pt  Pt81  1  0.57408517  0.28980000  0.69081954  1
  Pt  Pt82  1  0.49829016  0.26036151  0.64798095  1
  Pt  Pt83  1  0.27453417  0.34064501  0.60156026  1
  Pt  Pt84  1  0.42134293  0.38845434  0.69347320  1
  Pt  Pt85  1  0.42110962  0.30872378  0.65011901  1
  Pt  Pt86  1  0.34616108  0.36129347  0.64988961  1
  Pt  Pt87  1  0.57421786  0.44219850  0.78013223  1
  Pt  Pt88  1  0.57402170  0.36804496  0.73320910  1
  Pt  Pt89  1  0.49716501  0.41625855  0.74186507  1
  Pt  Pt90  1  0.27711204  0.49888427  0.69027708  1
  Pt  Pt91  1  0.27477925  0.41747389  0.64750582  1
  Pt  Pt92  1  0.42019417  0.55070430  0.77953469  1
  Pt  Pt93  1  0.42173952  0.46928541  0.74164649  1
  Pt  Pt94  1  0.35065850  0.52519769  0.73260054  1
  Au  Au95  1  0.58034020  0.61348488  0.21649427  1
  Au  Au96  1  0.50335343  0.50420007  0.21087414  1
  Au  Au97  1  0.65794860  0.64599322  0.25884834  1
  Au  Au98  1  0.65782393  0.56127118  0.29415085  1
  Au  Au99  1  0.58432472  0.69784441  0.25849580  1
  Au  Au100  1  0.50474438  0.66904751  0.29387586  1
  Au  Au101  1  0.65416663  0.71822099  0.39978596  1
  Au  Au102  1  0.42204451  0.38879882  0.20579561  1
  Au  Au103  1  0.49864882  0.33364431  0.21496697  1
  Au  Au104  1  0.49950655  0.41789222  0.25326195  1
  Au  Au105  1  0.57915133  0.36318376  0.25548614  1
  Au  Au106  1  0.57436860  0.44366416  0.31159237  1
  Au  Au107  1  0.50161946  0.33266662  0.30801616  1
  Au  Au108  1  0.65554372  0.38641101  0.30655493  1
  Au  Au109  1  0.65372546  0.47228258  0.35929314  1
  Au  Au110  1  0.73485380  0.41738074  0.35195543  1
  Au  Au111  1  0.73884604  0.50124877  0.39988962  1
  Au  Au112  1  0.65276934  0.39303417  0.40594601  1
  Au  Au113  1  0.80760288  0.43743856  0.40836135  1
  Au  Au114  1  0.81650722  0.52230281  0.45160200  1
  Au  Au115  1  0.81477434  0.44148695  0.49986222  1
  Au  Au116  1  0.34469525  0.44297233  0.21376283  1
  Au  Au117  1  0.34460322  0.52849086  0.25506000  1
  Au  Au118  1  0.42325665  0.47189577  0.25286526  1
  Au  Au119  1  0.42220912  0.55141172  0.31094191  1
  Au  Au120  1  0.34127104  0.44593375  0.30726719  1
  Au  Au121  1  0.49933478  0.49899144  0.30667386  1
  Au  Au122  1  0.50125224  0.58395562  0.35367472  1
  Au  Au123  1  0.57906780  0.52917888  0.35373813  1
  Au  Au124  1  0.57830020  0.61071807  0.40251178  1
  Au  Au125  1  0.50062851  0.50088669  0.40341094  1
  Au  Au126  1  0.65592673  0.55543598  0.40336131  1
  Au  Au127  1  0.65578299  0.63787510  0.45105829  1
  Au  Au128  1  0.74309470  0.58249541  0.44488761  1
  Au  Au129  1  0.73489669  0.66423385  0.49528890  1
  Au  Au130  1  0.65530872  0.55592131  0.49782208  1
  Au  Au131  1  0.80974461  0.60512977  0.50440978  1
  Au  Au132  1  0.34078295  0.60813772  0.30642242  1
  Au  Au133  1  0.34415038  0.69347989  0.35193876  1
  Au  Au134  1  0.42296188  0.63564176  0.35898571  1
  Au  Au135  1  0.42155419  0.72550375  0.39995134  1
  Au  Au136  1  0.34831988  0.60810554  0.40571801  1
  Au  Au137  1  0.50054458  0.66534939  0.40340065  1
  Au  Au138  1  0.49657175  0.75655054  0.44472195  1
  Au  Au139  1  0.57797576  0.69301128  0.45106284  1
  Au  Au140  1  0.57595576  0.77641419  0.49525613  1
  Au  Au141  1  0.50083011  0.66537526  0.49790551  1
  Au  Au142  1  0.65693593  0.72195554  0.49996578  1
  Au  Au143  1  0.65492945  0.71875918  0.59620907  1
  Au  Au144  1  0.33885184  0.76944641  0.40835162  1
  Au  Au145  1  0.41541529  0.80601683  0.45171857  1
  Au  Au146  1  0.33972694  0.77771350  0.49990725  1
  Au  Au147  1  0.49500202  0.82698537  0.50418686  1
  Au  Au148  1  0.50146976  0.25054961  0.35807288  1
  Au  Au149  1  0.57701766  0.27812440  0.40396874  1
  Au  Au150  1  0.65375447  0.22604871  0.40625080  1
  Au  Au151  1  0.65865708  0.30422615  0.45543412  1
  Au  Au152  1  0.73341533  0.33483359  0.50047389  1
  Au  Au153  1  0.66007496  0.22339076  0.50069433  1
  Au  Au154  1  0.34693447  0.28466449  0.30371141  1
  Au  Au155  1  0.33850011  0.36183869  0.35256024  1
  Au  Au156  1  0.42260388  0.30229794  0.35268222  1
  Au  Au157  1  0.42026003  0.38782507  0.40289327  1
  Au  Au158  1  0.34461526  0.28132200  0.40404148  1
  Au  Au159  1  0.49813260  0.33433048  0.40436208  1
  Au  Au160  1  0.49894698  0.41695570  0.45273578  1
  Au  Au161  1  0.57698542  0.36116112  0.45346666  1
  Au  Au162  1  0.57699204  0.44579719  0.50025283  1
  Au  Au163  1  0.49915216  0.33460011  0.50206851  1
  Au  Au164  1  0.65475395  0.39067308  0.50008296  1
  Au  Au165  1  0.65680793  0.47397631  0.54671990  1
  Au  Au166  1  0.73743641  0.41587708  0.54482627  1
  Au  Au167  1  0.73495212  0.50168408  0.59570700  1
  Au  Au168  1  0.65158565  0.39201279  0.59440943  1
  Au  Au169  1  0.80991294  0.44731056  0.59371220  1
  Au  Au170  1  0.26329500  0.41803446  0.35794712  1
  Au  Au171  1  0.26596247  0.49794290  0.40419486  1
  Au  Au172  1  0.34426462  0.44341669  0.40411111  1
  Au  Au173  1  0.34295699  0.52631452  0.45354873  1
  Au  Au174  1  0.42194828  0.47128021  0.45278107  1
  Au  Au175  1  0.42267279  0.55441788  0.49989341  1
  Au  Au176  1  0.34477930  0.44470463  0.50265422  1
  Au  Au177  1  0.49997786  0.50009816  0.49998758  1
  Au  Au178  1  0.50083373  0.58318547  0.54723216  1
  Au  Au179  1  0.57803214  0.52888446  0.54746476  1
  Au  Au180  1  0.57946455  0.61226138  0.59707272  1
  Au  Au181  1  0.49931437  0.49933268  0.59648849  1
  Au  Au182  1  0.65589619  0.55689082  0.59600023  1
  Au  Au183  1  0.66150801  0.63829274  0.64757335  1
  Au  Au184  1  0.73666581  0.58171236  0.64218267  1
  Au  Au185  1  0.65823845  0.55424968  0.69262508  1
  Au  Au186  1  0.19132238  0.55072906  0.40548401  1
  Au  Au187  1  0.26173452  0.58450350  0.45554031  1
  Au  Au188  1  0.26653923  0.66554235  0.50001749  1
  Au  Au189  1  0.18466079  0.55460193  0.50094613  1
  Au  Au190  1  0.34471449  0.60974432  0.50006267  1
  Au  Au191  1  0.34142219  0.69624845  0.54465293  1
  Au  Au192  1  0.42285639  0.63899166  0.54645189  1
  Au  Au193  1  0.42307040  0.72199125  0.59577787  1
  Au  Au194  1  0.34707088  0.60717571  0.59416821  1
  Au  Au195  1  0.50161613  0.66570928  0.59562420  1
  Au  Au196  1  0.49828254  0.74983432  0.64211170  1
  Au  Au197  1  0.57702387  0.69753986  0.64723202  1
  Au  Au198  1  0.49840849  0.66721061  0.69201661  1
  Au  Au199  1  0.65252958  0.71566613  0.69639762  1
  Au  Au200  1  0.34632811  0.77437525  0.59395368  1
  Au  Au201  1  0.42416766  0.22349521  0.50480917  1
  Au  Au202  1  0.50515555  0.17308393  0.49569082  1
  Au  Au203  1  0.50346968  0.24341148  0.55522764  1
  Au  Au204  1  0.58460491  0.19410244  0.54840225  1
  Au  Au205  1  0.57843996  0.27484315  0.60014797  1
  Au  Au206  1  0.66110564  0.23082606  0.59228860  1
  Au  Au207  1  0.65577455  0.30663184  0.64826778  1
  Au  Au208  1  0.26564420  0.33397168  0.50499021  1
  Au  Au209  1  0.34346941  0.27749186  0.50006718  1
  Au  Au210  1  0.34448075  0.36208194  0.54907925  1
  Au  Au211  1  0.42208094  0.30700682  0.54895796  1
  Au  Au212  1  0.42192439  0.38949221  0.59747572  1
  Au  Au213  1  0.34604867  0.28135308  0.60022650  1
  Au  Au214  1  0.49952321  0.33470841  0.59664086  1
  Au  Au215  1  0.49885863  0.41605631  0.64642999  1
  Au  Au216  1  0.57709121  0.36451486  0.64112793  1
  Au  Au217  1  0.57797211  0.44884630  0.68915042  1
  Au  Au218  1  0.49534731  0.33101816  0.70608168  1
  Au  Au219  1  0.65921085  0.39176597  0.69380828  1
  Au  Au220  1  0.65578491  0.47154064  0.74495062  1
  Au  Au221  1  0.19104471  0.39193919  0.49586717  1
  Au  Au222  1  0.18392716  0.47248741  0.54878098  1
  Au  Au223  1  0.25906212  0.41688286  0.55434102  1
  Au  Au224  1  0.26141525  0.49813746  0.59983958  1
  Au  Au225  1  0.34443921  0.44475037  0.59679543  1
  Au  Au226  1  0.34619981  0.52780260  0.64066635  1
  Au  Au227  1  0.42119917  0.47097194  0.64631919  1
  Au  Au228  1  0.42551256  0.55638424  0.68833100  1
  Au  Au229  1  0.34229950  0.43846752  0.70555930  1
  Au  Au230  1  0.50073427  0.50112825  0.69324774  1
  Au  Au231  1  0.50045701  0.58224608  0.74682441  1
  Au  Au232  1  0.57699309  0.52810250  0.74717981  1
  Au  Au233  1  0.57775037  0.61108673  0.79397156  1
  Au  Au234  1  0.49677736  0.49628508  0.78881446  1
  Au  Au235  1  0.65563401  0.55754252  0.78617377  1
  Au  Au236  1  0.19191317  0.55887636  0.59232981  1
  Au  Au237  1  0.26482135  0.58218583  0.64765109  1
  Au  Au238  1  0.34399925  0.61345449  0.69302639  1
  Au  Au239  1  0.42061018  0.63684605  0.74405471  1
  Au  Au240  1  0.50134028  0.66646048  0.78522744  1
  Au  Au241  1  0.34205973  0.35382633  0.74111504  1
  Au  Au242  1  0.41578148  0.30214394  0.74149523  1
  Au  Au243  1  0.41959102  0.38653811  0.78343019  1
