# generated using pymatgen
data_HPt94Au149
_symmetry_space_group_name_H-M   'P 1'
_cell_length_a   30.00000000
_cell_length_b   30.00000000
_cell_length_c   30.00000000
_cell_angle_alpha   90.00000000
_cell_angle_beta   90.00000000
_cell_angle_gamma   90.00000000
_symmetry_Int_Tables_number   1
_chemical_formula_structural   HPt94Au149
_chemical_formula_sum   'H1 Pt94 Au149'
_cell_volume   27000.00000000
_cell_formula_units_Z   1
loop_
 _symmetry_equiv_pos_site_id
 _symmetry_equiv_pos_as_xyz
  1  'x, y, z'
loop_
 _atom_site_type_symbol
 _atom_site_label
 _atom_site_symmetry_multiplicity
 _atom_site_fract_x
 _atom_site_fract_y
 _atom_site_fract_z
 _atom_site_occupancy
  H  H0  1  0.50329050  0.88359001  0.49637117  1
  Pt  Pt1  1  0.57933936  0.45006293  0.22020126  1
  Pt  Pt2  1  0.72279046  0.50059170  0.30935179  1
  Pt  Pt3  1  0.64901879  0.47495296  0.26722817  1
  Pt  Pt4  1  0.42570300  0.55820354  0.22009144  1
  Pt  Pt5  1  0.57866307  0.61172745  0.30662736  1
  Pt  Pt6  1  0.57817807  0.53144436  0.25830061  1
  Pt  Pt7  1  0.50261376  0.58418710  0.25826548  1
  Pt  Pt8  1  0.72550815  0.65872336  0.39836965  1
  Pt  Pt9  1  0.72533923  0.58199589  0.35225590  1
  Pt  Pt10  1  0.65385802  0.63875706  0.35000547  1
  Pt  Pt11  1  0.42609118  0.71063014  0.30964851  1
  Pt  Pt12  1  0.42578899  0.63243927  0.26715854  1
  Pt  Pt13  1  0.57393288  0.76576756  0.39884772  1
  Pt  Pt14  1  0.57873997  0.69156805  0.35011683  1
  Pt  Pt15  1  0.50162073  0.74010219  0.35338446  1
  Pt  Pt16  1  0.58452003  0.29276786  0.31266433  1
  Pt  Pt17  1  0.72759514  0.34248028  0.40611954  1
  Pt  Pt18  1  0.65440892  0.31158987  0.36315792  1
  Pt  Pt19  1  0.42397702  0.39245673  0.30771395  1
  Pt  Pt20  1  0.42339704  0.31544264  0.26131326  1
  Pt  Pt21  1  0.35128757  0.36627025  0.26101112  1
  Pt  Pt22  1  0.57593969  0.44555533  0.40562331  1
  Pt  Pt23  1  0.57534933  0.36538578  0.35989364  1
  Pt  Pt24  1  0.49741214  0.41726551  0.35697873  1
  Pt  Pt25  1  0.73189213  0.50080237  0.49555662  1
  Pt  Pt26  1  0.73074001  0.42008727  0.45205996  1
  Pt  Pt27  1  0.65439005  0.47487911  0.45267622  1
  Pt  Pt28  1  0.80501846  0.52336415  0.54222317  1
  Pt  Pt29  1  0.27558586  0.50991002  0.31294723  1
  Pt  Pt30  1  0.42319933  0.55276076  0.40488743  1
  Pt  Pt31  1  0.42263060  0.46981796  0.35649611  1
  Pt  Pt32  1  0.34766700  0.52574610  0.35934361  1
  Pt  Pt33  1  0.57821409  0.61085369  0.49890035  1
  Pt  Pt34  1  0.57743400  0.52845445  0.45082547  1
  Pt  Pt35  1  0.50076764  0.58240004  0.45082202  1
  Pt  Pt36  1  0.72682344  0.65906120  0.58726502  1
  Pt  Pt37  1  0.73177126  0.58061258  0.54480498  1
  Pt  Pt38  1  0.65358866  0.63672467  0.54523916  1
  Pt  Pt39  1  0.27562402  0.66169291  0.40491297  1
  Pt  Pt40  1  0.27043047  0.58216531  0.36306087  1
  Pt  Pt41  1  0.42256599  0.71770782  0.49570004  1
  Pt  Pt42  1  0.42453703  0.63643324  0.45235548  1
  Pt  Pt43  1  0.34754233  0.68985443  0.45173480  1
  Pt  Pt44  1  0.57361775  0.76705607  0.58738474  1
  Pt  Pt45  1  0.57730954  0.69052290  0.54524631  1
  Pt  Pt46  1  0.49873760  0.74705159  0.54311733  1
  Pt  Pt47  1  0.42200325  0.79485641  0.54092312  1
  Pt  Pt48  1  0.42570720  0.23297123  0.41251343  1
  Pt  Pt49  1  0.57675381  0.28104690  0.50421232  1
  Pt  Pt50  1  0.58035550  0.20475858  0.45750157  1
  Pt  Pt51  1  0.50152687  0.25441814  0.45482234  1
  Pt  Pt52  1  0.72426469  0.33827722  0.59463787  1
  Pt  Pt53  1  0.65226622  0.30920001  0.54833941  1
  Pt  Pt54  1  0.27288452  0.34107047  0.41261869  1
  Pt  Pt55  1  0.42162910  0.38878332  0.50108577  1
  Pt  Pt56  1  0.42240381  0.30913297  0.45485922  1
  Pt  Pt57  1  0.34613045  0.36321262  0.45472108  1
  Pt  Pt58  1  0.57661859  0.44676093  0.59505810  1
  Pt  Pt59  1  0.57530973  0.36289783  0.54760588  1
  Pt  Pt60  1  0.49901076  0.41754228  0.54931424  1
  Pt  Pt61  1  0.72414358  0.49027317  0.68700855  1
  Pt  Pt62  1  0.72930027  0.41782556  0.63690987  1
  Pt  Pt63  1  0.65217034  0.47420096  0.64050429  1
  Pt  Pt64  1  0.26796024  0.49927554  0.50427590  1
  Pt  Pt65  1  0.26806239  0.41940266  0.45515578  1
  Pt  Pt66  1  0.19470019  0.47655476  0.45781406  1
  Pt  Pt67  1  0.42399506  0.55419698  0.59465851  1
  Pt  Pt68  1  0.42254798  0.47135109  0.54921226  1
  Pt  Pt69  1  0.34545959  0.52487847  0.54741135  1
  Pt  Pt70  1  0.57614445  0.60769573  0.69227793  1
  Pt  Pt71  1  0.57738786  0.52997146  0.64340249  1
  Pt  Pt72  1  0.50243155  0.58242233  0.64332002  1
  Pt  Pt73  1  0.64853900  0.63403387  0.73912112  1
  Pt  Pt74  1  0.27243144  0.65739866  0.59416149  1
  Pt  Pt75  1  0.26914204  0.57993233  0.54796927  1
  Pt  Pt76  1  0.41625698  0.70830282  0.68608348  1
  Pt  Pt77  1  0.42463182  0.63474010  0.64004833  1
  Pt  Pt78  1  0.34604326  0.68844385  0.63665573  1
  Pt  Pt79  1  0.57659371  0.68499943  0.73883832  1
  Pt  Pt80  1  0.42596400  0.23423973  0.60190896  1
  Pt  Pt81  1  0.57384485  0.28978338  0.69078376  1
  Pt  Pt82  1  0.49813107  0.26048518  0.64795810  1
  Pt  Pt83  1  0.27445246  0.34131400  0.60161166  1
  Pt  Pt84  1  0.42134642  0.38839779  0.69348973  1
  Pt  Pt85  1  0.42095192  0.30855753  0.65012639  1
  Pt  Pt86  1  0.34597320  0.36131545  0.65014001  1
  Pt  Pt87  1  0.57420589  0.44233109  0.78015109  1
  Pt  Pt88  1  0.57411169  0.36785992  0.73343451  1
  Pt  Pt89  1  0.49734287  0.41612186  0.74201712  1
  Pt  Pt90  1  0.27698422  0.49924856  0.69066668  1
  Pt  Pt91  1  0.27450959  0.41792612  0.64774310  1
  Pt  Pt92  1  0.42024974  0.55068692  0.77944196  1
  Pt  Pt93  1  0.42170475  0.46884547  0.74193927  1
  Pt  Pt94  1  0.35070362  0.52508520  0.73269828  1
  Au  Au95  1  0.57956778  0.61489197  0.21682598  1
  Au  Au96  1  0.50346222  0.50494129  0.21061498  1
  Au  Au97  1  0.65773833  0.64624019  0.25884413  1
  Au  Au98  1  0.65775184  0.56159196  0.29427009  1
  Au  Au99  1  0.58417226  0.69854920  0.25899691  1
  Au  Au100  1  0.50471385  0.66893718  0.29523845  1
  Au  Au101  1  0.65398592  0.71821410  0.39980024  1
  Au  Au102  1  0.42200793  0.38932007  0.20597021  1
  Au  Au103  1  0.49864447  0.33442492  0.21484651  1
  Au  Au104  1  0.49947573  0.41845448  0.25332413  1
  Au  Au105  1  0.57910379  0.36392556  0.25550194  1
  Au  Au106  1  0.57442333  0.44383333  0.31159055  1
  Au  Au107  1  0.50177329  0.33265784  0.30798067  1
  Au  Au108  1  0.65556064  0.38642230  0.30660981  1
  Au  Au109  1  0.65369217  0.47238795  0.35924806  1
  Au  Au110  1  0.73497500  0.41748080  0.35206768  1
  Au  Au111  1  0.73898607  0.50139292  0.39969950  1
  Au  Au112  1  0.65287236  0.39314919  0.40584352  1
  Au  Au113  1  0.80787821  0.43808917  0.40869464  1
  Au  Au114  1  0.81659276  0.52240820  0.45170782  1
  Au  Au115  1  0.81504627  0.44148242  0.50025452  1
  Au  Au116  1  0.34411791  0.44298212  0.21393398  1
  Au  Au117  1  0.34421275  0.52853303  0.25500490  1
  Au  Au118  1  0.42297894  0.47217908  0.25268393  1
  Au  Au119  1  0.42196678  0.55124635  0.31098853  1
  Au  Au120  1  0.34121468  0.44579457  0.30740044  1
  Au  Au121  1  0.49929497  0.49905950  0.30655715  1
  Au  Au122  1  0.50106353  0.58389864  0.35374645  1
  Au  Au123  1  0.57898009  0.52912786  0.35367019  1
  Au  Au124  1  0.57805881  0.61052999  0.40253876  1
  Au  Au125  1  0.50065691  0.50072285  0.40350054  1
  Au  Au126  1  0.65579235  0.55556747  0.40323597  1
  Au  Au127  1  0.65579074  0.63775836  0.45102923  1
  Au  Au128  1  0.74314725  0.58262603  0.44473514  1
  Au  Au129  1  0.73509450  0.66424075  0.49489286  1
  Au  Au130  1  0.65522285  0.55596289  0.49783123  1
  Au  Au131  1  0.80972683  0.60501063  0.50444678  1
  Au  Au132  1  0.34074872  0.60805235  0.30638047  1
  Au  Au133  1  0.34414866  0.69329486  0.35163189  1
  Au  Au134  1  0.42277765  0.63557132  0.35910935  1
  Au  Au135  1  0.42157880  0.72574008  0.40004907  1
  Au  Au136  1  0.34820182  0.60771780  0.40565348  1
  Au  Au137  1  0.50027704  0.66530592  0.40341736  1
  Au  Au138  1  0.49681442  0.75773077  0.44651512  1
  Au  Au139  1  0.57793178  0.69245078  0.45092307  1
  Au  Au140  1  0.57767313  0.77545286  0.49507971  1
  Au  Au141  1  0.50064935  0.66532847  0.49763292  1
  Au  Au142  1  0.65767953  0.72197123  0.49983307  1
  Au  Au143  1  0.65442636  0.71902413  0.59584695  1
  Au  Au144  1  0.33785422  0.76834146  0.40853140  1
  Au  Au145  1  0.41541348  0.80485686  0.45101730  1
  Au  Au146  1  0.34025574  0.77700142  0.49976373  1
  Au  Au147  1  0.49905667  0.83168631  0.50696094  1
  Au  Au148  1  0.50151263  0.25040070  0.35816613  1
  Au  Au149  1  0.57701700  0.27815581  0.40379182  1
  Au  Au150  1  0.65373978  0.22585340  0.40610268  1
  Au  Au151  1  0.65844858  0.30391901  0.45552325  1
  Au  Au152  1  0.73341612  0.33469354  0.50042243  1
  Au  Au153  1  0.66020238  0.22234614  0.50025104  1
  Au  Au154  1  0.34690364  0.28466469  0.30365225  1
  Au  Au155  1  0.33867086  0.36177821  0.35260838  1
  Au  Au156  1  0.42283457  0.30196638  0.35257735  1
  Au  Au157  1  0.42048912  0.38736057  0.40285241  1
  Au  Au158  1  0.34514828  0.28116463  0.40389667  1
  Au  Au159  1  0.49839291  0.33432877  0.40436900  1
  Au  Au160  1  0.49919142  0.41672887  0.45281584  1
  Au  Au161  1  0.57716355  0.36095455  0.45361347  1
  Au  Au162  1  0.57706683  0.44573260  0.50035535  1
  Au  Au163  1  0.49922260  0.33465930  0.50225017  1
  Au  Au164  1  0.65491348  0.39053574  0.50009247  1
  Au  Au165  1  0.65689094  0.47392643  0.54669266  1
  Au  Au166  1  0.73748357  0.41601689  0.54475565  1
  Au  Au167  1  0.73476099  0.50167305  0.59585621  1
  Au  Au168  1  0.65162127  0.39193020  0.59444803  1
  Au  Au169  1  0.80987823  0.44733270  0.59380832  1
  Au  Au170  1  0.26332202  0.41812092  0.35808728  1
  Au  Au171  1  0.26501499  0.49838007  0.40421763  1
  Au  Au172  1  0.34420467  0.44306371  0.40416310  1
  Au  Au173  1  0.34307880  0.52582291  0.45331242  1
  Au  Au174  1  0.42215244  0.47079017  0.45255653  1
  Au  Au175  1  0.42290349  0.55389443  0.49983071  1
  Au  Au176  1  0.34470884  0.44391956  0.50217908  1
  Au  Au177  1  0.50003264  0.49993673  0.50001690  1
  Au  Au178  1  0.50088551  0.58303691  0.54732727  1
  Au  Au179  1  0.57803074  0.52880557  0.54745118  1
  Au  Au180  1  0.57926416  0.61227986  0.59723391  1
  Au  Au181  1  0.49941421  0.49911674  0.59654305  1
  Au  Au182  1  0.65573708  0.55708594  0.59591425  1
  Au  Au183  1  0.66129377  0.63856631  0.64752325  1
  Au  Au184  1  0.73651009  0.58195802  0.64187341  1
  Au  Au185  1  0.65863652  0.55440984  0.69269249  1
  Au  Au186  1  0.18984596  0.55263346  0.40607091  1
  Au  Au187  1  0.26215745  0.58410318  0.45515012  1
  Au  Au188  1  0.26651807  0.66520889  0.49951570  1
  Au  Au189  1  0.18487094  0.55836874  0.49974948  1
  Au  Au190  1  0.34476441  0.60899774  0.50005970  1
  Au  Au191  1  0.34119723  0.69579490  0.54462420  1
  Au  Au192  1  0.42279172  0.63831999  0.54644149  1
  Au  Au193  1  0.42367503  0.72162815  0.59469013  1
  Au  Au194  1  0.34707904  0.60668989  0.59428093  1
  Au  Au195  1  0.50167844  0.66555142  0.59563303  1
  Au  Au196  1  0.49840083  0.74948039  0.64146199  1
  Au  Au197  1  0.57706965  0.69781200  0.64728330  1
  Au  Au198  1  0.49836372  0.66723436  0.69193623  1
  Au  Au199  1  0.65260415  0.71578927  0.69645921  1
  Au  Au200  1  0.34777107  0.77432933  0.59349797  1
  Au  Au201  1  0.42399814  0.22352174  0.50489731  1
  Au  Au202  1  0.50512668  0.17306254  0.49567757  1
  Au  Au203  1  0.50332739  0.24332173  0.55532492  1
  Au  Au204  1  0.58442336  0.19415130  0.54832736  1
  Au  Au205  1  0.57837245  0.27468549  0.60018375  1
  Au  Au206  1  0.66099976  0.23051410  0.59184015  1
  Au  Au207  1  0.65584503  0.30651569  0.64825343  1
  Au  Au208  1  0.26503763  0.33560640  0.50509284  1
  Au  Au209  1  0.34295200  0.27790745  0.50028970  1
  Au  Au210  1  0.34430457  0.36203269  0.54900355  1
  Au  Au211  1  0.42214412  0.30689972  0.54906895  1
  Au  Au212  1  0.42177139  0.38924642  0.59753462  1
  Au  Au213  1  0.34585230  0.28170552  0.60018701  1
  Au  Au214  1  0.49953922  0.33465655  0.59669329  1
  Au  Au215  1  0.49878709  0.41599376  0.64646244  1
  Au  Au216  1  0.57705284  0.36451958  0.64126545  1
  Au  Au217  1  0.57801034  0.44866639  0.68914983  1
  Au  Au218  1  0.49509361  0.33108175  0.70628993  1
  Au  Au219  1  0.65917022  0.39190046  0.69374558  1
  Au  Au220  1  0.65563964  0.47166871  0.74505821  1
  Au  Au221  1  0.19025071  0.39485258  0.49557421  1
  Au  Au222  1  0.18339446  0.47752424  0.54834130  1
  Au  Au223  1  0.25688434  0.41744620  0.55516309  1
  Au  Au224  1  0.26100261  0.49854599  0.60027590  1
  Au  Au225  1  0.34421422  0.44412719  0.59677914  1
  Au  Au226  1  0.34614882  0.52739313  0.64073295  1
  Au  Au227  1  0.42097831  0.47076984  0.64639552  1
  Au  Au228  1  0.42537475  0.55620762  0.68835285  1
  Au  Au229  1  0.34219400  0.43845148  0.70574112  1
  Au  Au230  1  0.50061821  0.50083285  0.69334885  1
  Au  Au231  1  0.50034540  0.58214356  0.74637517  1
  Au  Au232  1  0.57699916  0.52812065  0.74688128  1
  Au  Au233  1  0.57753714  0.61100927  0.79405667  1
  Au  Au234  1  0.49672800  0.49628315  0.78888098  1
  Au  Au235  1  0.65553677  0.55752204  0.78620084  1
  Au  Au236  1  0.19208977  0.56190015  0.59126638  1
  Au  Au237  1  0.26497509  0.58237401  0.64797703  1
  Au  Au238  1  0.34434317  0.61350636  0.69349811  1
  Au  Au239  1  0.42072698  0.63706026  0.74395968  1
  Au  Au240  1  0.50118420  0.66645352  0.78496509  1
  Au  Au241  1  0.34220439  0.35380959  0.74119915  1
  Au  Au242  1  0.41518336  0.30097650  0.74103533  1
  Au  Au243  1  0.42041754  0.38503508  0.78315036  1
