# generated using pymatgen
data_Pt94Au149
_symmetry_space_group_name_H-M   'P 1'
_cell_length_a   30.00000000
_cell_length_b   30.00000000
_cell_length_c   30.00000000
_cell_angle_alpha   90.00000000
_cell_angle_beta   90.00000000
_cell_angle_gamma   90.00000000
_symmetry_Int_Tables_number   1
_chemical_formula_structural   Pt94Au149
_chemical_formula_sum   'Pt94 Au149'
_cell_volume   27000.00000000
_cell_formula_units_Z   1
loop_
 _symmetry_equiv_pos_site_id
 _symmetry_equiv_pos_as_xyz
  1  'x, y, z'
loop_
 _atom_site_type_symbol
 _atom_site_label
 _atom_site_symmetry_multiplicity
 _atom_site_fract_x
 _atom_site_fract_y
 _atom_site_fract_z
 _atom_site_occupancy
  Pt  Pt0  1  0.57605909  0.60875518  0.31252210  1
  Pt  Pt1  1  0.42455131  0.39216020  0.31500433  1
  Pt  Pt2  1  0.57697749  0.44709816  0.40630083  1
  Pt  Pt3  1  0.57691325  0.36592476  0.36018439  1
  Pt  Pt4  1  0.50021149  0.42018336  0.36012716  1
  Pt  Pt5  1  0.57649896  0.44664072  0.31340574  1
  Pt  Pt6  1  0.50007021  0.33722635  0.31601188  1
  Pt  Pt7  1  0.72688290  0.50039956  0.50006137  1
  Pt  Pt8  1  0.65230225  0.47361738  0.45323900  1
  Pt  Pt9  1  0.65321921  0.47374527  0.35976432  1
  Pt  Pt10  1  0.65286960  0.39337572  0.40617508  1
  Pt  Pt11  1  0.42334619  0.55355344  0.40596916  1
  Pt  Pt12  1  0.42392445  0.47283656  0.35987455  1
  Pt  Pt13  1  0.34709281  0.52644419  0.35925255  1
  Pt  Pt14  1  0.42368082  0.55362580  0.31303947  1
  Pt  Pt15  1  0.57607373  0.60768950  0.49949423  1
  Pt  Pt16  1  0.57576481  0.52722235  0.45310496  1
  Pt  Pt17  1  0.49981611  0.57998157  0.45295614  1
  Pt  Pt18  1  0.50031563  0.50041106  0.31274430  1
  Pt  Pt19  1  0.50049261  0.58088087  0.35876240  1
  Pt  Pt20  1  0.57605767  0.52838044  0.35913630  1
  Pt  Pt21  1  0.57515623  0.60835484  0.40510331  1
  Pt  Pt22  1  0.50000817  0.50015286  0.40661755  1
  Pt  Pt23  1  0.65195233  0.63528555  0.54667592  1
  Pt  Pt24  1  0.65166666  0.55435210  0.40619803  1
  Pt  Pt25  1  0.65180881  0.63485781  0.45346593  1
  Pt  Pt26  1  0.65159994  0.55417338  0.49996758  1
  Pt  Pt27  1  0.42484488  0.71330181  0.49977410  1
  Pt  Pt28  1  0.42346106  0.63342197  0.45335746  1
  Pt  Pt29  1  0.42320711  0.63451799  0.36015432  1
  Pt  Pt30  1  0.42511678  0.71471040  0.40663067  1
  Pt  Pt31  1  0.34681202  0.60664812  0.40583567  1
  Pt  Pt32  1  0.57649342  0.68862982  0.54607152  1
  Pt  Pt33  1  0.49947463  0.66100311  0.40593282  1
  Pt  Pt34  1  0.57604125  0.68868147  0.45271040  1
  Pt  Pt35  1  0.50030041  0.66047488  0.49951567  1
  Pt  Pt36  1  0.57487186  0.28625137  0.49969404  1
  Pt  Pt37  1  0.57404805  0.28490063  0.40628121  1
  Pt  Pt38  1  0.42391434  0.39228022  0.50022116  1
  Pt  Pt39  1  0.42368502  0.31082628  0.45382466  1
  Pt  Pt40  1  0.34820862  0.36475995  0.45382043  1
  Pt  Pt41  1  0.42473536  0.39227568  0.40687822  1
  Pt  Pt42  1  0.57621854  0.44652203  0.59386022  1
  Pt  Pt43  1  0.57644929  0.36642544  0.54639415  1
  Pt  Pt44  1  0.49990919  0.41979915  0.54666377  1
  Pt  Pt45  1  0.50050554  0.33907083  0.40690999  1
  Pt  Pt46  1  0.50037048  0.42049516  0.45372121  1
  Pt  Pt47  1  0.57664796  0.36651929  0.45375679  1
  Pt  Pt48  1  0.57569263  0.44706970  0.50009938  1
  Pt  Pt49  1  0.49985651  0.33945183  0.49934970  1
  Pt  Pt50  1  0.65319230  0.47336942  0.64052838  1
  Pt  Pt51  1  0.65256695  0.39290304  0.50006059  1
  Pt  Pt52  1  0.65189298  0.47314382  0.54642766  1
  Pt  Pt53  1  0.72819795  0.50172298  0.59350259  1
  Pt  Pt54  1  0.65264739  0.39289601  0.59423463  1
  Pt  Pt55  1  0.27306747  0.49954655  0.50032637  1
  Pt  Pt56  1  0.42395085  0.55340984  0.59372901  1
  Pt  Pt57  1  0.42443619  0.47287196  0.54669664  1
  Pt  Pt58  1  0.34838010  0.52682457  0.54627197  1
  Pt  Pt59  1  0.34775993  0.44563456  0.40664213  1
  Pt  Pt60  1  0.34766322  0.52630171  0.45315729  1
  Pt  Pt61  1  0.42436264  0.47316999  0.45347995  1
  Pt  Pt62  1  0.42444548  0.55297556  0.49986690  1
  Pt  Pt63  1  0.34823253  0.44592356  0.49988566  1
  Pt  Pt64  1  0.57592150  0.60796694  0.68557943  1
  Pt  Pt65  1  0.57614555  0.52737773  0.64021678  1
  Pt  Pt66  1  0.50014382  0.58074887  0.63999150  1
  Pt  Pt67  1  0.50005165  0.50018103  0.50012312  1
  Pt  Pt68  1  0.50011484  0.57995245  0.54629157  1
  Pt  Pt69  1  0.57558803  0.52684163  0.54642851  1
  Pt  Pt70  1  0.57591153  0.60775394  0.59334127  1
  Pt  Pt71  1  0.50002087  0.49997797  0.59356667  1
  Pt  Pt72  1  0.65223006  0.55343353  0.59319674  1
  Pt  Pt73  1  0.42353574  0.63512093  0.63999838  1
  Pt  Pt74  1  0.34757001  0.60714918  0.49986579  1
  Pt  Pt75  1  0.42368464  0.63365052  0.54617309  1
  Pt  Pt76  1  0.42514085  0.71513373  0.59323300  1
  Pt  Pt77  1  0.34787421  0.60725937  0.59388493  1
  Pt  Pt78  1  0.49922560  0.66113638  0.59284906  1
  Pt  Pt79  1  0.57475266  0.28488778  0.59283087  1
  Pt  Pt80  1  0.42377572  0.39144503  0.68737563  1
  Pt  Pt81  1  0.34829041  0.36535651  0.54745454  1
  Pt  Pt82  1  0.42420206  0.31176530  0.54716457  1
  Pt  Pt83  1  0.42441195  0.39220851  0.59480461  1
  Pt  Pt84  1  0.50088675  0.33887583  0.59353339  1
  Pt  Pt85  1  0.49965664  0.41889592  0.64082312  1
  Pt  Pt86  1  0.57639776  0.36505790  0.63966170  1
  Pt  Pt87  1  0.57662346  0.44632806  0.68643260  1
  Pt  Pt88  1  0.27177083  0.49799794  0.59368224  1
  Pt  Pt89  1  0.34822294  0.44661880  0.59372909  1
  Pt  Pt90  1  0.34750856  0.52645852  0.63974652  1
  Pt  Pt91  1  0.42414396  0.47177446  0.64098272  1
  Pt  Pt92  1  0.42385210  0.55399784  0.68602539  1
  Pt  Pt93  1  0.50009225  0.49971516  0.68703198  1
  Au  Au94  1  0.57896469  0.44476341  0.21897975  1
  Au  Au95  1  0.73064858  0.49934250  0.31075516  1
  Au  Au96  1  0.65535317  0.46975903  0.26488306  1
  Au  Au97  1  0.42165920  0.55652087  0.21925100  1
  Au  Au98  1  0.57873776  0.52793096  0.26085496  1
  Au  Au99  1  0.49931346  0.58433900  0.26063729  1
  Au  Au100  1  0.57731085  0.60928243  0.21832713  1
  Au  Au101  1  0.50113813  0.50120025  0.21550216  1
  Au  Au102  1  0.72898234  0.66444736  0.40718286  1
  Au  Au103  1  0.73092326  0.58380549  0.35582647  1
  Au  Au104  1  0.65478396  0.63906627  0.35722818  1
  Au  Au105  1  0.65309402  0.63615667  0.26520737  1
  Au  Au106  1  0.65568437  0.55484558  0.30819683  1
  Au  Au107  1  0.42139772  0.71868969  0.31419531  1
  Au  Au108  1  0.41920963  0.63741256  0.26611274  1
  Au  Au109  1  0.57837849  0.77260048  0.40602320  1
  Au  Au110  1  0.57774877  0.69441324  0.35664184  1
  Au  Au111  1  0.49930449  0.74712428  0.35764257  1
  Au  Au112  1  0.57669564  0.68968936  0.26483015  1
  Au  Au113  1  0.49884302  0.66613577  0.30828919  1
  Au  Au114  1  0.65448839  0.71967625  0.40870378  1
  Au  Au115  1  0.57474003  0.28249618  0.31291569  1
  Au  Au116  1  0.72891976  0.33780622  0.40299476  1
  Au  Au117  1  0.65379381  0.30813581  0.35586103  1
  Au  Au118  1  0.42352753  0.30640195  0.26711872  1
  Au  Au119  1  0.34577598  0.36188274  0.26360582  1
  Au  Au120  1  0.42395256  0.38810924  0.21879004  1
  Au  Au121  1  0.50116959  0.33192465  0.22522322  1
  Au  Au122  1  0.50112290  0.41828904  0.26244478  1
  Au  Au123  1  0.57993401  0.36242822  0.26442379  1
  Au  Au124  1  0.73238841  0.41668712  0.45310952  1
  Au  Au125  1  0.65626446  0.38898612  0.31098342  1
  Au  Au126  1  0.73336613  0.41758483  0.35580995  1
  Au  Au127  1  0.73236368  0.50155727  0.40384583  1
  Au  Au128  1  0.80668650  0.53070975  0.54825490  1
  Au  Au129  1  0.80757245  0.44661046  0.40785132  1
  Au  Au130  1  0.80893676  0.52841289  0.45338023  1
  Au  Au131  1  0.80855000  0.44772499  0.50157411  1
  Au  Au132  1  0.26914977  0.50062218  0.31068064  1
  Au  Au133  1  0.34781667  0.44360084  0.21792237  1
  Au  Au134  1  0.34399169  0.52812037  0.26182815  1
  Au  Au135  1  0.42420736  0.47303110  0.26182139  1
  Au  Au136  1  0.34411403  0.44488364  0.31100190  1
  Au  Au137  1  0.73050087  0.66541403  0.59362703  1
  Au  Au138  1  0.73098108  0.58437584  0.54767924  1
  Au  Au139  1  0.73114565  0.58256880  0.45082804  1
  Au  Au140  1  0.73214597  0.66749414  0.50021322  1
  Au  Au141  1  0.80662214  0.61006127  0.49750164  1
  Au  Au142  1  0.26940601  0.66157464  0.40377013  1
  Au  Au143  1  0.26600595  0.58197297  0.35581889  1
  Au  Au144  1  0.34384529  0.69015965  0.45261015  1
  Au  Au145  1  0.34263346  0.60812515  0.31013622  1
  Au  Au146  1  0.34402248  0.68966447  0.35588586  1
  Au  Au147  1  0.57827771  0.77280699  0.59268136  1
  Au  Au148  1  0.50172795  0.74562664  0.54770162  1
  Au  Au149  1  0.50150331  0.74579187  0.45110198  1
  Au  Au150  1  0.58038500  0.77468602  0.49939460  1
  Au  Au151  1  0.65516260  0.71942710  0.50164274  1
  Au  Au152  1  0.65591189  0.72141946  0.59422294  1
  Au  Au153  1  0.42627016  0.79967196  0.54737219  1
  Au  Au154  1  0.35228921  0.76959607  0.40425281  1
  Au  Au155  1  0.42585126  0.79926618  0.45133115  1
  Au  Au156  1  0.34948074  0.77258011  0.49963770  1
  Au  Au157  1  0.50140135  0.82628105  0.49933661  1
  Au  Au158  1  0.42096205  0.22623169  0.40731838  1
  Au  Au159  1  0.57397166  0.20005036  0.45213668  1
  Au  Au160  1  0.49800167  0.25345489  0.45123948  1
  Au  Au161  1  0.49943956  0.25161348  0.35726379  1
  Au  Au162  1  0.73034122  0.33800887  0.59629697  1
  Au  Au163  1  0.65601134  0.30954410  0.54713463  1
  Au  Au164  1  0.64672794  0.22916723  0.40456755  1
  Au  Au165  1  0.65537066  0.30922473  0.45250892  1
  Au  Au166  1  0.73287168  0.33499668  0.49994038  1
  Au  Au167  1  0.65026715  0.22737882  0.50005518  1
  Au  Au168  1  0.27028315  0.33548925  0.40742268  1
  Au  Au169  1  0.34510687  0.28263897  0.31232061  1
  Au  Au170  1  0.34424232  0.36345689  0.35866652  1
  Au  Au171  1  0.42293838  0.30624788  0.35981830  1
  Au  Au172  1  0.34374016  0.27821258  0.40628583  1
  Au  Au173  1  0.73305824  0.50006502  0.68604571  1
  Au  Au174  1  0.73290420  0.41766954  0.64416792  1
  Au  Au175  1  0.73234476  0.41702013  0.54749584  1
  Au  Au176  1  0.80476107  0.45234927  0.59635676  1
  Au  Au177  1  0.26861531  0.41700164  0.45146392  1
  Au  Au178  1  0.19113681  0.47142229  0.45379780  1
  Au  Au179  1  0.26599983  0.41662633  0.35657887  1
  Au  Au180  1  0.26798943  0.49841909  0.40400360  1
  Au  Au181  1  0.65407584  0.63720258  0.73619027  1
  Au  Au182  1  0.65618770  0.63632500  0.64131367  1
  Au  Au183  1  0.73538983  0.58258103  0.64127766  1
  Au  Au184  1  0.65702282  0.55516321  0.68831219  1
  Au  Au185  1  0.27060290  0.66208154  0.59637615  1
  Au  Au186  1  0.26812265  0.58294006  0.54769625  1
  Au  Au187  1  0.19228781  0.55285630  0.40803817  1
  Au  Au188  1  0.26760968  0.58297395  0.45337867  1
  Au  Au189  1  0.26686461  0.66496462  0.50036769  1
  Au  Au190  1  0.19165264  0.55225564  0.50169445  1
  Au  Au191  1  0.42172068  0.71958980  0.68585599  1
  Au  Au192  1  0.34452260  0.69183735  0.64380131  1
  Au  Au193  1  0.34406657  0.69113338  0.54705122  1
  Au  Au194  1  0.57680816  0.69152896  0.73616532  1
  Au  Au195  1  0.49852161  0.74972284  0.64127515  1
  Au  Au196  1  0.57510204  0.69321155  0.64060257  1
  Au  Au197  1  0.49895130  0.66637393  0.68840726  1
  Au  Au198  1  0.65193030  0.71722419  0.68757194  1
  Au  Au199  1  0.35337906  0.77106361  0.59532590  1
  Au  Au200  1  0.42153583  0.22772093  0.59401415  1
  Au  Au201  1  0.41971634  0.22506680  0.50060008  1
  Au  Au202  1  0.57816711  0.28103579  0.68553759  1
  Au  Au203  1  0.50050144  0.25292676  0.64185556  1
  Au  Au204  1  0.49872004  0.17335042  0.50024250  1
  Au  Au205  1  0.49830409  0.25413769  0.54804669  1
  Au  Au206  1  0.57387909  0.20026162  0.54848109  1
  Au  Au207  1  0.64728325  0.23016266  0.59566870  1
  Au  Au208  1  0.65574246  0.30996729  0.64425948  1
  Au  Au209  1  0.27060708  0.33461788  0.59379833  1
  Au  Au210  1  0.26818335  0.33269675  0.50040777  1
  Au  Au211  1  0.42218671  0.30650872  0.64322488  1
  Au  Au212  1  0.34423875  0.36153091  0.64334154  1
  Au  Au213  1  0.34520923  0.28078657  0.49885027  1
  Au  Au214  1  0.34576983  0.28070584  0.59200145  1
  Au  Au215  1  0.57960419  0.44353948  0.77953377  1
  Au  Au216  1  0.58041179  0.36215645  0.73365026  1
  Au  Au217  1  0.50080481  0.41586660  0.73921187  1
  Au  Au218  1  0.50094158  0.33372346  0.69174685  1
  Au  Au219  1  0.65674584  0.39148432  0.68998394  1
  Au  Au220  1  0.65837150  0.47198338  0.73694192  1
  Au  Au221  1  0.26862585  0.50023655  0.68620920  1
  Au  Au222  1  0.26787866  0.41723130  0.64243760  1
  Au  Au223  1  0.19324896  0.39030321  0.49949468  1
  Au  Au224  1  0.19271493  0.46981574  0.54894511  1
  Au  Au225  1  0.26886464  0.41600068  0.54857540  1
  Au  Au226  1  0.42059106  0.55634732  0.77963434  1
  Au  Au227  1  0.42104697  0.47284642  0.73875867  1
  Au  Au228  1  0.34389058  0.52997819  0.73407076  1
  Au  Au229  1  0.34376560  0.44491275  0.69195948  1
  Au  Au230  1  0.49963107  0.58120341  0.73754750  1
  Au  Au231  1  0.57674140  0.52679406  0.73763774  1
  Au  Au232  1  0.57729659  0.60979803  0.78342711  1
  Au  Au233  1  0.49908220  0.49864570  0.78413587  1
  Au  Au234  1  0.65380916  0.55483645  0.78114059  1
  Au  Au235  1  0.19586083  0.54843173  0.59670473  1
  Au  Au236  1  0.26877123  0.58261726  0.64434150  1
  Au  Au237  1  0.34512673  0.61140576  0.68957871  1
  Au  Au238  1  0.42059847  0.63939113  0.73632082  1
  Au  Au239  1  0.49991552  0.66300993  0.78157134  1
  Au  Au240  1  0.34671239  0.36378880  0.73526814  1
  Au  Au241  1  0.42322749  0.31045872  0.73518700  1
  Au  Au242  1  0.42247643  0.39149840  0.78116350  1
