data_con3.0_33
_audit_creation_date              2024-04-18
_audit_creation_method            'Materials Studio'
_symmetry_space_group_name_H-M    'P1'
_symmetry_Int_Tables_number       1
_symmetry_cell_setting            triclinic
loop_
_symmetry_equiv_pos_as_xyz
  x,y,z
_cell_length_a                    30.0000
_cell_length_b                    30.0000
_cell_length_c                    30.0000
_cell_angle_alpha                 90.0000
_cell_angle_beta                  90.0000
_cell_angle_gamma                 90.0000
loop_
_atom_site_label
_atom_site_type_symbol
_atom_site_fract_x
_atom_site_fract_y
_atom_site_fract_z
_atom_site_U_iso_or_equiv
_atom_site_adp_type
_atom_site_occupancy
Ni1    Ni    0.50000   0.50000   0.50000   0.00000  Uiso   1.00
Ni2    Ni    0.44664   0.34906   0.40757   0.00000  Uiso   1.00
Ni3    Ni    0.55336   0.65094   0.59243   0.00000  Uiso   1.00
Ni4    Ni    0.44664   0.34906   0.59243   0.00000  Uiso   1.00
Ni5    Ni    0.55336   0.65094   0.40757   0.00000  Uiso   1.00
Ni6    Ni    0.39327   0.65094   0.50000   0.00000  Uiso   1.00
Ni7    Ni    0.60673   0.34906   0.50000   0.00000  Uiso   1.00
Ni8    Ni    0.66009   0.50000   0.59243   0.00000  Uiso   1.00
Ni9    Ni    0.33991   0.50000   0.40757   0.00000  Uiso   1.00
Ni10   Ni    0.33991   0.50000   0.59243   0.00000  Uiso   1.00
Ni11   Ni    0.66009   0.50000   0.40757   0.00000  Uiso   1.00
Ni12   Ni    0.50000   0.50000   0.31514   0.00000  Uiso   1.00
Ni13   Ni    0.50000   0.50000   0.68486   0.00000  Uiso   1.00
Ni14   Ni    0.28654   0.34906   0.50000   0.00000  Uiso   1.00
Ni15   Ni    0.71346   0.65094   0.50000   0.00000  Uiso   1.00
Ni16   Ni    0.39327   0.65094   0.68486   0.00000  Uiso   1.00
Ni17   Ni    0.60673   0.34906   0.31514   0.00000  Uiso   1.00
Ni18   Ni    0.60673   0.34906   0.68486   0.00000  Uiso   1.00
Ni19   Ni    0.39327   0.65094   0.31514   0.00000  Uiso   1.00
Ni20   Ni    0.39327   0.19812   0.50000   0.00000  Uiso   1.00
Ni21   Ni    0.60673   0.80188   0.50000   0.00000  Uiso   1.00
Ni22   Ni    0.44664   0.80188   0.59243   0.00000  Uiso   1.00
Ni23   Ni    0.55336   0.19812   0.40757   0.00000  Uiso   1.00
Ni24   Ni    0.55336   0.19812   0.59243   0.00000  Uiso   1.00
Ni25   Ni    0.44664   0.80188   0.40757   0.00000  Uiso   1.00
Ni26   Ni    0.71346   0.65094   0.68486   0.00000  Uiso   1.00
Ni27   Ni    0.28654   0.34906   0.31514   0.00000  Uiso   1.00
Ni28   Ni    0.28654   0.34906   0.68486   0.00000  Uiso   1.00
Ni29   Ni    0.71346   0.65094   0.31514   0.00000  Uiso   1.00
Ni30   Ni    0.82019   0.50000   0.50000   0.00000  Uiso   1.00
Ni31   Ni    0.17981   0.50000   0.50000   0.00000  Uiso   1.00
Ni32   Ni    0.76682   0.34906   0.40757   0.00000  Uiso   1.00
Ni33   Ni    0.23318   0.65094   0.59243   0.00000  Uiso   1.00
Ni34   Ni    0.76682   0.34906   0.59243   0.00000  Uiso   1.00
Ni35   Ni    0.23318   0.65094   0.40757   0.00000  Uiso   1.00
Ni36   Ni    0.44664   0.34906   0.22271   0.00000  Uiso   1.00
Ni37   Ni    0.55336   0.65094   0.77729   0.00000  Uiso   1.00
Ni38   Ni    0.44664   0.34906   0.77729   0.00000  Uiso   1.00
Ni39   Ni    0.55336   0.65094   0.22271   0.00000  Uiso   1.00
Ni40   Ni    0.66009   0.50000   0.77729   0.00000  Uiso   1.00
Ni41   Ni    0.33991   0.50000   0.22271   0.00000  Uiso   1.00
Ni42   Ni    0.66009   0.50000   0.22271   0.00000  Uiso   1.00
Ni43   Ni    0.33991   0.50000   0.77729   0.00000  Uiso   1.00
Pt1    Pt    0.52668   0.57547   0.54622   0.00000  Uiso   1.00
Pt2    Pt    0.52668   0.57547   0.45378   0.00000  Uiso   1.00
Pt3    Pt    0.44664   0.57547   0.50000   0.00000  Uiso   1.00
Pt4    Pt    0.58005   0.50000   0.54622   0.00000  Uiso   1.00
Pt5    Pt    0.41995   0.50000   0.54622   0.00000  Uiso   1.00
Pt6    Pt    0.50000   0.50000   0.59243   0.00000  Uiso   1.00
Pt7    Pt    0.50000   0.50000   0.40757   0.00000  Uiso   1.00
Pt8    Pt    0.58005   0.50000   0.45378   0.00000  Uiso   1.00
Pt9    Pt    0.41995   0.50000   0.45378   0.00000  Uiso   1.00
Pt10   Pt    0.55336   0.42453   0.50000   0.00000  Uiso   1.00
Pt11   Pt    0.47332   0.42453   0.54622   0.00000  Uiso   1.00
Pt12   Pt    0.47332   0.42453   0.45378   0.00000  Uiso   1.00
Pt13   Pt    0.44664   0.57547   0.40757   0.00000  Uiso   1.00
Pt14   Pt    0.44664   0.57547   0.59243   0.00000  Uiso   1.00
Pt15   Pt    0.60673   0.57547   0.50000   0.00000  Uiso   1.00
Pt16   Pt    0.39327   0.42453   0.50000   0.00000  Uiso   1.00
Pt17   Pt    0.55336   0.42453   0.40757   0.00000  Uiso   1.00
Pt18   Pt    0.55336   0.42453   0.59243   0.00000  Uiso   1.00
Pt19   Pt    0.60673   0.57547   0.59243   0.00000  Uiso   1.00
Pt20   Pt    0.47332   0.65094   0.45378   0.00000  Uiso   1.00
Pt21   Pt    0.52668   0.57547   0.63865   0.00000  Uiso   1.00
Pt22   Pt    0.44664   0.34906   0.50000   0.00000  Uiso   1.00
Pt23   Pt    0.55336   0.65094   0.50000   0.00000  Uiso   1.00
Pt24   Pt    0.47332   0.65094   0.54622   0.00000  Uiso   1.00
Pt25   Pt    0.60673   0.57547   0.40757   0.00000  Uiso   1.00
Pt26   Pt    0.52668   0.34906   0.45378   0.00000  Uiso   1.00
Pt27   Pt    0.41995   0.50000   0.63865   0.00000  Uiso   1.00
Pt28   Pt    0.36659   0.57547   0.54622   0.00000  Uiso   1.00
Pt29   Pt    0.58005   0.50000   0.63865   0.00000  Uiso   1.00
Pt30   Pt    0.63341   0.42453   0.54622   0.00000  Uiso   1.00
Pt31   Pt    0.52668   0.57547   0.36135   0.00000  Uiso   1.00
Pt32   Pt    0.33991   0.50000   0.50000   0.00000  Uiso   1.00
Pt33   Pt    0.66009   0.50000   0.50000   0.00000  Uiso   1.00
Pt34   Pt    0.39327   0.42453   0.59243   0.00000  Uiso   1.00
Pt35   Pt    0.36659   0.57547   0.45378   0.00000  Uiso   1.00
Pt36   Pt    0.63341   0.42453   0.45378   0.00000  Uiso   1.00
Pt37   Pt    0.47332   0.42453   0.63865   0.00000  Uiso   1.00
Pt38   Pt    0.52668   0.34906   0.54622   0.00000  Uiso   1.00
Pt39   Pt    0.41995   0.50000   0.36135   0.00000  Uiso   1.00
Pt40   Pt    0.58005   0.50000   0.36135   0.00000  Uiso   1.00
Pt41   Pt    0.47332   0.42453   0.36135   0.00000  Uiso   1.00
Pt42   Pt    0.39327   0.42453   0.40757   0.00000  Uiso   1.00
Pt43   Pt    0.63341   0.65094   0.54622   0.00000  Uiso   1.00
Pt44   Pt    0.47332   0.65094   0.63865   0.00000  Uiso   1.00
Pt45   Pt    0.68678   0.57547   0.54622   0.00000  Uiso   1.00
Pt46   Pt    0.68678   0.57547   0.45378   0.00000  Uiso   1.00
Pt47   Pt    0.44664   0.57547   0.68486   0.00000  Uiso   1.00
Pt48   Pt    0.36659   0.34906   0.54622   0.00000  Uiso   1.00
Pt49   Pt    0.52668   0.34906   0.63865   0.00000  Uiso   1.00
Pt50   Pt    0.63341   0.65094   0.45378   0.00000  Uiso   1.00
Pt51   Pt    0.55336   0.42453   0.68486   0.00000  Uiso   1.00
Pt52   Pt    0.39327   0.65094   0.59243   0.00000  Uiso   1.00
Pt53   Pt    0.60673   0.34906   0.40757   0.00000  Uiso   1.00
Pt54   Pt    0.60673   0.34906   0.59243   0.00000  Uiso   1.00
Pt55   Pt    0.39327   0.65094   0.40757   0.00000  Uiso   1.00
Pt56   Pt    0.36659   0.57547   0.63865   0.00000  Uiso   1.00
Pt57   Pt    0.63341   0.42453   0.63865   0.00000  Uiso   1.00
Pt58   Pt    0.47332   0.65094   0.36135   0.00000  Uiso   1.00
Pt59   Pt    0.36659   0.34906   0.45378   0.00000  Uiso   1.00
Pt60   Pt    0.31322   0.42453   0.54622   0.00000  Uiso   1.00
Pt61   Pt    0.36659   0.57547   0.36135   0.00000  Uiso   1.00
Pt62   Pt    0.63341   0.42453   0.36135   0.00000  Uiso   1.00
Pt63   Pt    0.31322   0.42453   0.45378   0.00000  Uiso   1.00
Pt64   Pt    0.52668   0.34906   0.36135   0.00000  Uiso   1.00
Pt65   Pt    0.44664   0.57547   0.31514   0.00000  Uiso   1.00
Pt66   Pt    0.55336   0.42453   0.31514   0.00000  Uiso   1.00
Pt67   Pt    0.50000   0.72641   0.50000   0.00000  Uiso   1.00
Pt68   Pt    0.28654   0.57547   0.50000   0.00000  Uiso   1.00
Pt69   Pt    0.60673   0.57547   0.31514   0.00000  Uiso   1.00
Pt70   Pt    0.60673   0.57547   0.68486   0.00000  Uiso   1.00
Pt71   Pt    0.50000   0.27359   0.50000   0.00000  Uiso   1.00
Pt72   Pt    0.39327   0.42453   0.31514   0.00000  Uiso   1.00
Pt73   Pt    0.39327   0.42453   0.68486   0.00000  Uiso   1.00
Pt74   Pt    0.71346   0.42453   0.50000   0.00000  Uiso   1.00
Pt75   Pt    0.58005   0.72641   0.54622   0.00000  Uiso   1.00
Pt76   Pt    0.50000   0.72641   0.59243   0.00000  Uiso   1.00
Pt77   Pt    0.58005   0.72641   0.45378   0.00000  Uiso   1.00
Pt78   Pt    0.41995   0.72641   0.54622   0.00000  Uiso   1.00
Pt79   Pt    0.41995   0.72641   0.45378   0.00000  Uiso   1.00
Pt80   Pt    0.50000   0.72641   0.40757   0.00000  Uiso   1.00
Pt81   Pt    0.68678   0.57547   0.63865   0.00000  Uiso   1.00
Pt82   Pt    0.31322   0.65094   0.54622   0.00000  Uiso   1.00
Pt83   Pt    0.63341   0.65094   0.36135   0.00000  Uiso   1.00
Pt84   Pt    0.63341   0.65094   0.63865   0.00000  Uiso   1.00
Pt85   Pt    0.68678   0.57547   0.36135   0.00000  Uiso   1.00
Pt86   Pt    0.52668   0.57547   0.73108   0.00000  Uiso   1.00
Pt87   Pt    0.71346   0.42453   0.59243   0.00000  Uiso   1.00
Pt88   Pt    0.68678   0.34906   0.54622   0.00000  Uiso   1.00
Pt89   Pt    0.50000   0.27359   0.59243   0.00000  Uiso   1.00
Pt90   Pt    0.55336   0.65094   0.68486   0.00000  Uiso   1.00
Pt91   Pt    0.44664   0.34906   0.31514   0.00000  Uiso   1.00
Pt92   Pt    0.44664   0.34906   0.68486   0.00000  Uiso   1.00
Pt93   Pt    0.55336   0.65094   0.31514   0.00000  Uiso   1.00
Pt94   Pt    0.28654   0.57547   0.59243   0.00000  Uiso   1.00
Pt95   Pt    0.36659   0.34906   0.36135   0.00000  Uiso   1.00
Pt96   Pt    0.74014   0.50000   0.54622   0.00000  Uiso   1.00
Pt97   Pt    0.25986   0.50000   0.54622   0.00000  Uiso   1.00
Pt98   Pt    0.36659   0.34906   0.63865   0.00000  Uiso   1.00
Pt99   Pt    0.58005   0.50000   0.73108   0.00000  Uiso   1.00
Pt100  Pt    0.31322   0.65094   0.45378   0.00000  Uiso   1.00
Pt101  Pt    0.41995   0.50000   0.73108   0.00000  Uiso   1.00
Pt102  Pt    0.41995   0.27359   0.54622   0.00000  Uiso   1.00
Pt103  Pt    0.58005   0.27359   0.54622   0.00000  Uiso   1.00
Pt104  Pt    0.74014   0.50000   0.45378   0.00000  Uiso   1.00
Pt105  Pt    0.25986   0.50000   0.45378   0.00000  Uiso   1.00
Pt106  Pt    0.41995   0.27359   0.45378   0.00000  Uiso   1.00
Pt107  Pt    0.58005   0.27359   0.45378   0.00000  Uiso   1.00
Pt108  Pt    0.47332   0.42453   0.73108   0.00000  Uiso   1.00
Pt109  Pt    0.66009   0.50000   0.68486   0.00000  Uiso   1.00
Pt110  Pt    0.33991   0.50000   0.31514   0.00000  Uiso   1.00
Pt111  Pt    0.33991   0.50000   0.68486   0.00000  Uiso   1.00
Pt112  Pt    0.66009   0.50000   0.31514   0.00000  Uiso   1.00
Pt113  Pt    0.31322   0.42453   0.63865   0.00000  Uiso   1.00
Pt114  Pt    0.71346   0.42453   0.40757   0.00000  Uiso   1.00
Pt115  Pt    0.52668   0.57547   0.26892   0.00000  Uiso   1.00
Pt116  Pt    0.50000   0.27359   0.40757   0.00000  Uiso   1.00
Pt117  Pt    0.68678   0.34906   0.45378   0.00000  Uiso   1.00
Pt118  Pt    0.28654   0.57547   0.40757   0.00000  Uiso   1.00
Pt119  Pt    0.31322   0.42453   0.36135   0.00000  Uiso   1.00
Pt120  Pt    0.58005   0.50000   0.26892   0.00000  Uiso   1.00
Pt121  Pt    0.41995   0.50000   0.26892   0.00000  Uiso   1.00
Pt122  Pt    0.47332   0.42453   0.26892   0.00000  Uiso   1.00
Pt123  Pt    0.66009   0.72641   0.50000   0.00000  Uiso   1.00
Pt124  Pt    0.58005   0.72641   0.63865   0.00000  Uiso   1.00
Pt125  Pt    0.58005   0.72641   0.36135   0.00000  Uiso   1.00
Pt126  Pt    0.41995   0.72641   0.63865   0.00000  Uiso   1.00
Pt127  Pt    0.76682   0.57547   0.50000   0.00000  Uiso   1.00
Pt128  Pt    0.33991   0.72641   0.50000   0.00000  Uiso   1.00
Pt129  Pt    0.41995   0.72641   0.36135   0.00000  Uiso   1.00
Pt130  Pt    0.71346   0.65094   0.59243   0.00000  Uiso   1.00
Pt131  Pt    0.28654   0.34906   0.40757   0.00000  Uiso   1.00
Pt132  Pt    0.28654   0.34906   0.59243   0.00000  Uiso   1.00
Pt133  Pt    0.71346   0.65094   0.40757   0.00000  Uiso   1.00
Pt134  Pt    0.47332   0.65094   0.73108   0.00000  Uiso   1.00
Pt135  Pt    0.31322   0.65094   0.36135   0.00000  Uiso   1.00
Pt136  Pt    0.31322   0.65094   0.63865   0.00000  Uiso   1.00
Pt137  Pt    0.74014   0.50000   0.63865   0.00000  Uiso   1.00
Pt138  Pt    0.25986   0.50000   0.63865   0.00000  Uiso   1.00
Pt139  Pt    0.47332   0.65094   0.26892   0.00000  Uiso   1.00
Pt140  Pt    0.36659   0.57547   0.73108   0.00000  Uiso   1.00
Pt141  Pt    0.41995   0.27359   0.63865   0.00000  Uiso   1.00
Pt142  Pt    0.58005   0.27359   0.63865   0.00000  Uiso   1.00
Pt143  Pt    0.63341   0.42453   0.73108   0.00000  Uiso   1.00
Pt144  Pt    0.33991   0.27359   0.50000   0.00000  Uiso   1.00
Pt145  Pt    0.66009   0.27359   0.50000   0.00000  Uiso   1.00
Pt146  Pt    0.52668   0.34906   0.73108   0.00000  Uiso   1.00
Pt147  Pt    0.68678   0.34906   0.36135   0.00000  Uiso   1.00
Pt148  Pt    0.68678   0.34906   0.63865   0.00000  Uiso   1.00
Pt149  Pt    0.74014   0.50000   0.36135   0.00000  Uiso   1.00
Pt150  Pt    0.25986   0.50000   0.36135   0.00000  Uiso   1.00
Pt151  Pt    0.41995   0.27359   0.36135   0.00000  Uiso   1.00
Pt152  Pt    0.58005   0.27359   0.36135   0.00000  Uiso   1.00
Pt153  Pt    0.23318   0.42453   0.50000   0.00000  Uiso   1.00
Pt154  Pt    0.52668   0.34906   0.26892   0.00000  Uiso   1.00
Pt155  Pt    0.50000   0.50000   0.22271   0.00000  Uiso   1.00
Pt156  Pt    0.50000   0.50000   0.77729   0.00000  Uiso   1.00
Pt157  Pt    0.36659   0.57547   0.26892   0.00000  Uiso   1.00
Pt158  Pt    0.63341   0.42453   0.26892   0.00000  Uiso   1.00
Pt159  Pt    0.33991   0.72641   0.40757   0.00000  Uiso   1.00
Pt160  Pt    0.66009   0.72641   0.40757   0.00000  Uiso   1.00
Pt161  Pt    0.33991   0.72641   0.59243   0.00000  Uiso   1.00
Pt162  Pt    0.66009   0.72641   0.59243   0.00000  Uiso   1.00
Pt163  Pt    0.50000   0.72641   0.31514   0.00000  Uiso   1.00
Pt164  Pt    0.50000   0.72641   0.68486   0.00000  Uiso   1.00
Pt165  Pt    0.33991   0.27359   0.40757   0.00000  Uiso   1.00
Pt166  Pt    0.23318   0.42453   0.40757   0.00000  Uiso   1.00
Pt167  Pt    0.33991   0.27359   0.59243   0.00000  Uiso   1.00
Pt168  Pt    0.28654   0.57547   0.31514   0.00000  Uiso   1.00
Pt169  Pt    0.23318   0.42453   0.59243   0.00000  Uiso   1.00
Pt170  Pt    0.28654   0.57547   0.68486   0.00000  Uiso   1.00
Pt171  Pt    0.76682   0.57547   0.40757   0.00000  Uiso   1.00
Pt172  Pt    0.76682   0.57547   0.59243   0.00000  Uiso   1.00
Pt173  Pt    0.44664   0.57547   0.22271   0.00000  Uiso   1.00
Pt174  Pt    0.44664   0.57547   0.77729   0.00000  Uiso   1.00
Pt175  Pt    0.50000   0.27359   0.31514   0.00000  Uiso   1.00
Pt176  Pt    0.50000   0.27359   0.68486   0.00000  Uiso   1.00
Pt177  Pt    0.66009   0.27359   0.40757   0.00000  Uiso   1.00
Pt178  Pt    0.66009   0.27359   0.59243   0.00000  Uiso   1.00
Pt179  Pt    0.55336   0.42453   0.22271   0.00000  Uiso   1.00
Pt180  Pt    0.71346   0.42453   0.31514   0.00000  Uiso   1.00
Pt181  Pt    0.55336   0.42453   0.77729   0.00000  Uiso   1.00
Pt182  Pt    0.71346   0.42453   0.68486   0.00000  Uiso   1.00
Pt183  Pt    0.52668   0.80188   0.54622   0.00000  Uiso   1.00
Pt184  Pt    0.47332   0.19812   0.54622   0.00000  Uiso   1.00
Pt185  Pt    0.52668   0.80188   0.45378   0.00000  Uiso   1.00
Pt186  Pt    0.55336   0.19812   0.50000   0.00000  Uiso   1.00
Pt187  Pt    0.44664   0.80188   0.50000   0.00000  Uiso   1.00
Pt188  Pt    0.63341   0.65094   0.73108   0.00000  Uiso   1.00
Pt189  Pt    0.60673   0.57547   0.77729   0.00000  Uiso   1.00
Pt190  Pt    0.68678   0.57547   0.73108   0.00000  Uiso   1.00
Pt191  Pt    0.36659   0.34906   0.73108   0.00000  Uiso   1.00
Pt192  Pt    0.79351   0.42453   0.54622   0.00000  Uiso   1.00
Pt193  Pt    0.47332   0.19812   0.45378   0.00000  Uiso   1.00
Pt194  Pt    0.79351   0.42453   0.45378   0.00000  Uiso   1.00
Pt195  Pt    0.39327   0.42453   0.77729   0.00000  Uiso   1.00
Pt196  Pt    0.76682   0.34906   0.50000   0.00000  Uiso   1.00
Pt197  Pt    0.23318   0.65094   0.50000   0.00000  Uiso   1.00
Pt198  Pt    0.68678   0.57547   0.26892   0.00000  Uiso   1.00
Pt199  Pt    0.20649   0.57547   0.54622   0.00000  Uiso   1.00
Pt200  Pt    0.63341   0.65094   0.26892   0.00000  Uiso   1.00
Pt201  Pt    0.31322   0.42453   0.73108   0.00000  Uiso   1.00
Pt202  Pt    0.20649   0.57547   0.45378   0.00000  Uiso   1.00
Pt203  Pt    0.36659   0.34906   0.26892   0.00000  Uiso   1.00
Pt204  Pt    0.60673   0.57547   0.22271   0.00000  Uiso   1.00
Pt205  Pt    0.31322   0.42453   0.26892   0.00000  Uiso   1.00
Pt206  Pt    0.39327   0.42453   0.22271   0.00000  Uiso   1.00
Pt207  Pt    0.66009   0.72641   0.68486   0.00000  Uiso   1.00
Pt208  Pt    0.74014   0.72641   0.54622   0.00000  Uiso   1.00
Pt209  Pt    0.74014   0.72641   0.45378   0.00000  Uiso   1.00
Pt210  Pt    0.52668   0.80188   0.36135   0.00000  Uiso   1.00
Pt211  Pt    0.36659   0.80188   0.45378   0.00000  Uiso   1.00
Pt212  Pt    0.58005   0.72641   0.73108   0.00000  Uiso   1.00
Pt213  Pt    0.60673   0.80188   0.59243   0.00000  Uiso   1.00
Pt214  Pt    0.39327   0.19812   0.40757   0.00000  Uiso   1.00
Pt215  Pt    0.39327   0.19812   0.59243   0.00000  Uiso   1.00
Pt216  Pt    0.60673   0.80188   0.40757   0.00000  Uiso   1.00
Pt217  Pt    0.52668   0.80188   0.63865   0.00000  Uiso   1.00
Pt218  Pt    0.76682   0.57547   0.68486   0.00000  Uiso   1.00
Pt219  Pt    0.33991   0.72641   0.68486   0.00000  Uiso   1.00
Pt220  Pt    0.41995   0.72641   0.73108   0.00000  Uiso   1.00
Pt221  Pt    0.66009   0.72641   0.31514   0.00000  Uiso   1.00
Pt222  Pt    0.79351   0.65094   0.45378   0.00000  Uiso   1.00
Pt223  Pt    0.36659   0.80188   0.54622   0.00000  Uiso   1.00
Pt224  Pt    0.58005   0.72641   0.26892   0.00000  Uiso   1.00
Pt225  Pt    0.47332   0.19812   0.36135   0.00000  Uiso   1.00
Pt226  Pt    0.63341   0.19812   0.45378   0.00000  Uiso   1.00
Pt227  Pt    0.79351   0.65094   0.54622   0.00000  Uiso   1.00
Pt228  Pt    0.25986   0.72641   0.54622   0.00000  Uiso   1.00
Pt229  Pt    0.31322   0.65094   0.73108   0.00000  Uiso   1.00
Pt230  Pt    0.20649   0.34906   0.45378   0.00000  Uiso   1.00
Pt231  Pt    0.25986   0.72641   0.45378   0.00000  Uiso   1.00
Pt232  Pt    0.41995   0.72641   0.26892   0.00000  Uiso   1.00
Pt233  Pt    0.47332   0.19812   0.63865   0.00000  Uiso   1.00
Pt234  Pt    0.33991   0.27359   0.68486   0.00000  Uiso   1.00
Pt235  Pt    0.66009   0.27359   0.68486   0.00000  Uiso   1.00
Pt236  Pt    0.79351   0.42453   0.63865   0.00000  Uiso   1.00
Pt237  Pt    0.20649   0.34906   0.54622   0.00000  Uiso   1.00
Pt238  Pt    0.52668   0.57547   0.82351   0.00000  Uiso   1.00
Pt239  Pt    0.68678   0.34906   0.73108   0.00000  Uiso   1.00
Pt240  Pt    0.76682   0.57547   0.31514   0.00000  Uiso   1.00
Pt241  Pt    0.33991   0.72641   0.31514   0.00000  Uiso   1.00
Pt242  Pt    0.25986   0.50000   0.73108   0.00000  Uiso   1.00
Pt243  Pt    0.74014   0.50000   0.73108   0.00000  Uiso   1.00
Pt244  Pt    0.25986   0.27359   0.54622   0.00000  Uiso   1.00
Pt245  Pt    0.74014   0.27359   0.54622   0.00000  Uiso   1.00
Pt246  Pt    0.82019   0.50000   0.59243   0.00000  Uiso   1.00
Pt247  Pt    0.17981   0.50000   0.40757   0.00000  Uiso   1.00
Pt248  Pt    0.17981   0.50000   0.59243   0.00000  Uiso   1.00
Pt249  Pt    0.82019   0.50000   0.40757   0.00000  Uiso   1.00
Pt250  Pt    0.63341   0.19812   0.54622   0.00000  Uiso   1.00
Pt251  Pt    0.41995   0.27359   0.73108   0.00000  Uiso   1.00
Pt252  Pt    0.23318   0.42453   0.68486   0.00000  Uiso   1.00
Pt253  Pt    0.58005   0.27359   0.73108   0.00000  Uiso   1.00
Pt254  Pt    0.25986   0.27359   0.45378   0.00000  Uiso   1.00
Pt255  Pt    0.74014   0.27359   0.45378   0.00000  Uiso   1.00
Pt256  Pt    0.79351   0.42453   0.36135   0.00000  Uiso   1.00
Pt257  Pt    0.41995   0.50000   0.82351   0.00000  Uiso   1.00
Pt258  Pt    0.58005   0.50000   0.82351   0.00000  Uiso   1.00
Pt259  Pt    0.20649   0.57547   0.63865   0.00000  Uiso   1.00
Pt260  Pt    0.39327   0.65094   0.77729   0.00000  Uiso   1.00
Pt261  Pt    0.60673   0.34906   0.22271   0.00000  Uiso   1.00
Pt262  Pt    0.39327   0.65094   0.22271   0.00000  Uiso   1.00
Pt263  Pt    0.60673   0.34906   0.77729   0.00000  Uiso   1.00
Pt264  Pt    0.47332   0.42453   0.82351   0.00000  Uiso   1.00
Pt265  Pt    0.20649   0.57547   0.36135   0.00000  Uiso   1.00
Pt266  Pt    0.31322   0.65094   0.26892   0.00000  Uiso   1.00
Pt267  Pt    0.25986   0.50000   0.26892   0.00000  Uiso   1.00
Pt268  Pt    0.74014   0.50000   0.26892   0.00000  Uiso   1.00
Pt269  Pt    0.41995   0.27359   0.26892   0.00000  Uiso   1.00
Pt270  Pt    0.58005   0.27359   0.26892   0.00000  Uiso   1.00
Pt271  Pt    0.52668   0.57547   0.17649   0.00000  Uiso   1.00
Pt272  Pt    0.33991   0.27359   0.31514   0.00000  Uiso   1.00
Pt273  Pt    0.66009   0.27359   0.31514   0.00000  Uiso   1.00
Pt274  Pt    0.68678   0.34906   0.26892   0.00000  Uiso   1.00
Pt275  Pt    0.41995   0.50000   0.17649   0.00000  Uiso   1.00
Pt276  Pt    0.58005   0.50000   0.17649   0.00000  Uiso   1.00
Pt277  Pt    0.23318   0.42453   0.31514   0.00000  Uiso   1.00
Pt278  Pt    0.47332   0.42453   0.17649   0.00000  Uiso   1.00
