# generated using pymatgen
data_Pt133Au116
_symmetry_space_group_name_H-M   'P 1'
_cell_length_a   30.00000000
_cell_length_b   30.00000000
_cell_length_c   30.00000000
_cell_angle_alpha   90.00000000
_cell_angle_beta   90.00000000
_cell_angle_gamma   90.00000000
_symmetry_Int_Tables_number   1
_chemical_formula_structural   Pt133Au116
_chemical_formula_sum   'Pt133 Au116'
_cell_volume   27000.00000000
_cell_formula_units_Z   1
loop_
 _symmetry_equiv_pos_site_id
 _symmetry_equiv_pos_as_xyz
  1  'x, y, z'
loop_
 _atom_site_type_symbol
 _atom_site_label
 _atom_site_symmetry_multiplicity
 _atom_site_fract_x
 _atom_site_fract_y
 _atom_site_fract_z
 _atom_site_occupancy
  Pt  Pt0  1  0.49999996  0.49999994  0.50002336  1
  Pt  Pt1  1  0.49999996  0.56727331  0.56571605  1
  Pt  Pt2  1  0.49999996  0.43272681  0.56571656  1
  Pt  Pt3  1  0.49999996  0.43272680  0.43369500  1
  Pt  Pt4  1  0.49999996  0.56727330  0.43369449  1
  Pt  Pt5  1  0.56757569  0.49999997  0.43370966  1
  Pt  Pt6  1  0.43242442  0.49999997  0.43370946  1
  Pt  Pt7  1  0.43242442  0.49999995  0.56653966  1
  Pt  Pt8  1  0.56757569  0.49999995  0.56653986  1
  Pt  Pt9  1  0.43242442  0.43272681  0.49992856  1
  Pt  Pt10  1  0.56757569  0.43272681  0.49992876  1
  Pt  Pt11  1  0.43242442  0.56727331  0.49992805  1
  Pt  Pt12  1  0.56757569  0.56727331  0.49992825  1
  Pt  Pt13  1  0.49999999  0.49999999  0.63404569  1
  Pt  Pt14  1  0.49999996  0.50000000  0.36592649  1
  Pt  Pt15  1  0.49999996  0.63454644  0.50002285  1
  Pt  Pt16  1  0.49999996  0.36545344  0.50002387  1
  Pt  Pt17  1  0.63515122  0.49999994  0.50002356  1
  Pt  Pt18  1  0.36484869  0.49999994  0.50002316  1
  Pt  Pt19  1  0.56757569  0.43272676  0.36594676  1
  Pt  Pt20  1  0.43242442  0.43272676  0.36594656  1
  Pt  Pt21  1  0.56757569  0.56727326  0.36594625  1
  Pt  Pt22  1  0.43242442  0.56727326  0.36594605  1
  Pt  Pt23  1  0.56757569  0.36545347  0.43371017  1
  Pt  Pt24  1  0.43242442  0.36545347  0.43370997  1
  Pt  Pt25  1  0.56757569  0.63454647  0.43370915  1
  Pt  Pt26  1  0.43242442  0.63454647  0.43370895  1
  Pt  Pt27  1  0.43242439  0.56727325  0.63411632  1
  Pt  Pt28  1  0.56757566  0.56727325  0.63411652  1
  Pt  Pt29  1  0.43242439  0.43272675  0.63411683  1
  Pt  Pt30  1  0.56757566  0.43272675  0.63411703  1
  Pt  Pt31  1  0.43242442  0.63454645  0.56653915  1
  Pt  Pt32  1  0.56757569  0.63454645  0.56653935  1
  Pt  Pt33  1  0.43242442  0.36545345  0.56654017  1
  Pt  Pt34  1  0.56757569  0.36545345  0.56654037  1
  Pt  Pt35  1  0.36484869  0.56727331  0.56571585  1
  Pt  Pt36  1  0.63515122  0.56727331  0.56571625  1
  Pt  Pt37  1  0.36484869  0.43272681  0.56571636  1
  Pt  Pt38  1  0.63515122  0.43272681  0.56571676  1
  Pt  Pt39  1  0.63515122  0.43272680  0.43369520  1
  Pt  Pt40  1  0.36484869  0.43272680  0.43369480  1
  Pt  Pt41  1  0.63515122  0.56727330  0.43369469  1
  Pt  Pt42  1  0.36484869  0.56727330  0.43369429  1
  Pt  Pt43  1  0.49999999  0.63454649  0.63404518  1
  Pt  Pt44  1  0.49999999  0.36545349  0.63404620  1
  Pt  Pt45  1  0.49999996  0.36545350  0.36592700  1
  Pt  Pt46  1  0.49999996  0.63454650  0.36592598  1
  Pt  Pt47  1  0.36484872  0.49999999  0.63404549  1
  Pt  Pt48  1  0.63515126  0.49999999  0.63404589  1
  Pt  Pt49  1  0.63515122  0.50000000  0.36592669  1
  Pt  Pt50  1  0.36484869  0.50000000  0.36592629  1
  Pt  Pt51  1  0.63515122  0.63454644  0.50002305  1
  Pt  Pt52  1  0.36484869  0.63454644  0.50002265  1
  Pt  Pt53  1  0.63515122  0.36545344  0.50002407  1
  Pt  Pt54  1  0.36484869  0.36545344  0.50002367  1
  Pt  Pt55  1  0.49999996  0.70181981  0.56571554  1
  Pt  Pt56  1  0.49999996  0.29818031  0.56571708  1
  Pt  Pt57  1  0.49999996  0.29818030  0.43369551  1
  Pt  Pt58  1  0.49999996  0.70181980  0.43369397  1
  Pt  Pt59  1  0.56757566  0.49999999  0.29852766  1
  Pt  Pt60  1  0.43242439  0.49999999  0.29852746  1
  Pt  Pt61  1  0.49999996  0.56727326  0.70170845  1
  Pt  Pt62  1  0.49999996  0.43272676  0.70170897  1
  Pt  Pt63  1  0.43242442  0.29818031  0.49992907  1
  Pt  Pt64  1  0.56757569  0.29818031  0.49992927  1
  Pt  Pt65  1  0.43242442  0.70181981  0.49992754  1
  Pt  Pt66  1  0.56757569  0.70181981  0.49992774  1
  Pt  Pt67  1  0.49999996  0.43272676  0.29797577  1
  Pt  Pt68  1  0.49999996  0.56727326  0.29797525  1
  Pt  Pt69  1  0.43242439  0.49999999  0.70226066  1
  Pt  Pt70  1  0.56757566  0.49999999  0.70226086  1
  Pt  Pt71  1  0.70272696  0.49999997  0.43370986  1
  Pt  Pt72  1  0.29727316  0.49999997  0.43370926  1
  Pt  Pt73  1  0.29727316  0.49999995  0.56653946  1
  Pt  Pt74  1  0.70272696  0.49999995  0.56654006  1
  Pt  Pt75  1  0.29727316  0.43272681  0.49992836  1
  Pt  Pt76  1  0.29727316  0.56727331  0.49992785  1
  Pt  Pt77  1  0.70272696  0.43272681  0.49992896  1
  Pt  Pt78  1  0.70272696  0.56727331  0.49992845  1
  Pt  Pt79  1  0.36484872  0.63454649  0.63404498  1
  Pt  Pt80  1  0.63515126  0.63454649  0.63404538  1
  Pt  Pt81  1  0.36484872  0.36545349  0.63404600  1
  Pt  Pt82  1  0.63515126  0.36545349  0.63404640  1
  Pt  Pt83  1  0.63515122  0.36545350  0.36592720  1
  Pt  Pt84  1  0.36484869  0.36545350  0.36592680  1
  Pt  Pt85  1  0.63515122  0.63454650  0.36592618  1
  Pt  Pt86  1  0.36484869  0.63454650  0.36592578  1
  Pt  Pt87  1  0.56757566  0.36545349  0.29852817  1
  Pt  Pt88  1  0.43242439  0.36545349  0.29852797  1
  Pt  Pt89  1  0.56757566  0.63454649  0.29852715  1
  Pt  Pt90  1  0.43242439  0.63454649  0.29852695  1
  Pt  Pt91  1  0.56757569  0.29818026  0.36594727  1
  Pt  Pt92  1  0.43242442  0.29818026  0.36594707  1
  Pt  Pt93  1  0.56757569  0.70181976  0.36594574  1
  Pt  Pt94  1  0.43242442  0.70181976  0.36594554  1
  Pt  Pt95  1  0.43242439  0.70181975  0.63411581  1
  Pt  Pt96  1  0.56757566  0.70181975  0.63411601  1
  Pt  Pt97  1  0.43242439  0.29818025  0.63411734  1
  Pt  Pt98  1  0.56757566  0.29818025  0.63411754  1
  Pt  Pt99  1  0.36484869  0.70181981  0.56571534  1
  Pt  Pt100  1  0.63515122  0.70181981  0.56571574  1
  Pt  Pt101  1  0.36484869  0.29818031  0.56571688  1
  Pt  Pt102  1  0.63515122  0.29818031  0.56571728  1
  Pt  Pt103  1  0.63515122  0.29818030  0.43369571  1
  Pt  Pt104  1  0.36484869  0.29818030  0.43369531  1
  Pt  Pt105  1  0.63515122  0.70181980  0.43369417  1
  Pt  Pt106  1  0.36484869  0.70181980  0.43369377  1
  Pt  Pt107  1  0.36484869  0.56727326  0.70170825  1
  Pt  Pt108  1  0.63515122  0.56727326  0.70170865  1
  Pt  Pt109  1  0.36484869  0.43272676  0.70170877  1
  Pt  Pt110  1  0.63515122  0.43272676  0.70170917  1
  Pt  Pt111  1  0.43242439  0.63454649  0.70226015  1
  Pt  Pt112  1  0.56757566  0.63454649  0.70226035  1
  Pt  Pt113  1  0.43242439  0.36545349  0.70226117  1
  Pt  Pt114  1  0.56757566  0.36545349  0.70226137  1
  Pt  Pt115  1  0.70272696  0.43272676  0.36594696  1
  Pt  Pt116  1  0.29727316  0.43272676  0.36594636  1
  Pt  Pt117  1  0.70272696  0.56727326  0.36594645  1
  Pt  Pt118  1  0.29727316  0.56727326  0.36594585  1
  Pt  Pt119  1  0.70272696  0.36545347  0.43371037  1
  Pt  Pt120  1  0.29727316  0.36545347  0.43370977  1
  Pt  Pt121  1  0.70272696  0.63454647  0.43370935  1
  Pt  Pt122  1  0.29727316  0.63454647  0.43370875  1
  Pt  Pt123  1  0.63515122  0.43272676  0.29797597  1
  Pt  Pt124  1  0.36484869  0.43272676  0.29797557  1
  Pt  Pt125  1  0.63515122  0.56727326  0.29797545  1
  Pt  Pt126  1  0.36484869  0.56727326  0.29797505  1
  Pt  Pt127  1  0.29727312  0.56727325  0.63411612  1
  Pt  Pt128  1  0.29727312  0.43272675  0.63411663  1
  Pt  Pt129  1  0.70272692  0.56727325  0.63411672  1
  Pt  Pt130  1  0.70272692  0.43272675  0.63411723  1
  Pt  Pt131  1  0.29727316  0.63454645  0.56653895  1
  Pt  Pt132  1  0.70272696  0.63454645  0.56653955  1
  Au  Au133  1  0.29727316  0.36545345  0.56653997  1
  Au  Au134  1  0.70272696  0.36545345  0.56654057  1
  Au  Au135  1  0.49999996  0.76909294  0.50002234  1
  Au  Au136  1  0.49999996  0.23090694  0.50002438  1
  Au  Au137  1  0.49999996  0.50000000  0.76965969  1
  Au  Au138  1  0.49999999  0.49999999  0.23031249  1
  Au  Au139  1  0.77030249  0.49999994  0.50002376  1
  Au  Au140  1  0.22969742  0.49999994  0.50002296  1
  Au  Au141  1  0.56757569  0.23090697  0.43371068  1
  Au  Au142  1  0.43242442  0.23090697  0.43371048  1
  Au  Au143  1  0.56757569  0.76909297  0.43370864  1
  Au  Au144  1  0.43242442  0.76909297  0.43370844  1
  Au  Au145  1  0.43242442  0.76909295  0.56653864  1
  Au  Au146  1  0.56757569  0.76909295  0.56653884  1
  Au  Au147  1  0.43242442  0.23090695  0.56654068  1
  Au  Au148  1  0.56757569  0.23090695  0.56654088  1
  Au  Au149  1  0.49999996  0.70181976  0.70170794  1
  Au  Au150  1  0.49999996  0.29818026  0.70170948  1
  Au  Au151  1  0.49999996  0.29818026  0.29797628  1
  Au  Au152  1  0.49999996  0.70181976  0.29797474  1
  Au  Au153  1  0.70272692  0.49999999  0.29852786  1
  Au  Au154  1  0.29727312  0.49999999  0.29852726  1
  Au  Au155  1  0.56757566  0.43272675  0.23038383  1
  Au  Au156  1  0.43242439  0.43272675  0.23038363  1
  Au  Au157  1  0.56757566  0.56727325  0.23038332  1
  Au  Au158  1  0.43242439  0.56727325  0.23038312  1
  Au  Au159  1  0.43242442  0.56727326  0.76967925  1
  Au  Au160  1  0.56757569  0.56727326  0.76967945  1
  Au  Au161  1  0.43242442  0.43272676  0.76967976  1
  Au  Au162  1  0.56757569  0.43272676  0.76967996  1
  Au  Au163  1  0.29727316  0.29818031  0.49992887  1
  Au  Au164  1  0.29727316  0.70181981  0.49992734  1
  Au  Au165  1  0.70272696  0.29818031  0.49992947  1
  Au  Au166  1  0.70272696  0.70181981  0.49992794  1
  Au  Au167  1  0.22969742  0.56727331  0.56571565  1
  Au  Au168  1  0.22969742  0.43272681  0.56571616  1
  Au  Au169  1  0.77030249  0.56727331  0.56571645  1
  Au  Au170  1  0.77030249  0.43272681  0.56571696  1
  Au  Au171  1  0.77030249  0.43272680  0.43369540  1
  Au  Au172  1  0.77030249  0.56727330  0.43369489  1
  Au  Au173  1  0.22969742  0.43272680  0.43369460  1
  Au  Au174  1  0.22969742  0.56727330  0.43369409  1
  Au  Au175  1  0.29727312  0.49999999  0.70226046  1
  Au  Au176  1  0.70272692  0.49999999  0.70226106  1
  Au  Au177  1  0.49999999  0.76909299  0.63404467  1
  Au  Au178  1  0.49999999  0.23090699  0.63404671  1
  Au  Au179  1  0.49999996  0.23090700  0.36592751  1
  Au  Au180  1  0.49999996  0.76909300  0.36592547  1
  Au  Au181  1  0.63515122  0.76909294  0.50002254  1
  Au  Au182  1  0.36484869  0.76909294  0.50002214  1
  Au  Au183  1  0.63515122  0.23090694  0.50002458  1
  Au  Au184  1  0.36484869  0.23090694  0.50002418  1
  Au  Au185  1  0.49999996  0.63454650  0.76965918  1
  Au  Au186  1  0.49999996  0.36545350  0.76966020  1
  Au  Au187  1  0.49999999  0.36545349  0.23031300  1
  Au  Au188  1  0.49999999  0.63454649  0.23031198  1
  Au  Au189  1  0.36484869  0.50000000  0.76965949  1
  Au  Au190  1  0.63515122  0.50000000  0.76965989  1
  Au  Au191  1  0.63515126  0.49999999  0.23031269  1
  Au  Au192  1  0.36484872  0.49999999  0.23031229  1
  Au  Au193  1  0.22969746  0.49999999  0.63404529  1
  Au  Au194  1  0.77030252  0.49999999  0.63404609  1
  Au  Au195  1  0.77030249  0.50000000  0.36592689  1
  Au  Au196  1  0.22969742  0.50000000  0.36592609  1
  Au  Au197  1  0.77030249  0.63454644  0.50002325  1
  Au  Au198  1  0.77030249  0.36545344  0.50002427  1
  Au  Au199  1  0.22969742  0.63454644  0.50002245  1
  Au  Au200  1  0.22969742  0.36545344  0.50002347  1
  Au  Au201  1  0.36484869  0.70181976  0.70170774  1
  Au  Au202  1  0.63515122  0.70181976  0.70170814  1
  Au  Au203  1  0.36484869  0.29818026  0.70170928  1
  Au  Au204  1  0.63515122  0.29818026  0.70170968  1
  Au  Au205  1  0.70272692  0.36545349  0.29852837  1
  Au  Au206  1  0.29727312  0.36545349  0.29852777  1
  Au  Au207  1  0.70272692  0.63454649  0.29852735  1
  Au  Au208  1  0.29727312  0.63454649  0.29852675  1
  Au  Au209  1  0.70272696  0.29818026  0.36594747  1
  Au  Au210  1  0.29727316  0.29818026  0.36594687  1
  Au  Au211  1  0.70272696  0.70181976  0.36594594  1
  Au  Au212  1  0.29727316  0.70181976  0.36594534  1
  Au  Au213  1  0.63515122  0.29818026  0.29797648  1
  Au  Au214  1  0.36484869  0.29818026  0.29797608  1
  Au  Au215  1  0.63515122  0.70181976  0.29797494  1
  Au  Au216  1  0.36484869  0.70181976  0.29797454  1
  Au  Au217  1  0.29727312  0.70181975  0.63411561  1
  Au  Au218  1  0.70272692  0.70181975  0.63411621  1
  Au  Au219  1  0.29727312  0.29818025  0.63411714  1
  Au  Au220  1  0.70272692  0.29818025  0.63411774  1
  Au  Au221  1  0.29727312  0.63454649  0.70225995  1
  Au  Au222  1  0.70272692  0.63454649  0.70226055  1
  Au  Au223  1  0.29727312  0.36545349  0.70226097  1
  Au  Au224  1  0.70272692  0.36545349  0.70226157  1
  Au  Au225  1  0.36484872  0.76909299  0.63404447  1
  Au  Au226  1  0.63515126  0.76909299  0.63404487  1
  Au  Au227  1  0.36484872  0.23090699  0.63404651  1
  Au  Au228  1  0.63515126  0.23090699  0.63404691  1
  Au  Au229  1  0.63515122  0.23090700  0.36592771  1
  Au  Au230  1  0.36484869  0.23090700  0.36592731  1
  Au  Au231  1  0.63515122  0.76909300  0.36592567  1
  Au  Au232  1  0.36484869  0.76909300  0.36592527  1
  Au  Au233  1  0.36484869  0.63454650  0.76965898  1
  Au  Au234  1  0.63515122  0.63454650  0.76965938  1
  Au  Au235  1  0.36484869  0.36545350  0.76966000  1
  Au  Au236  1  0.63515122  0.36545350  0.76966040  1
  Au  Au237  1  0.63515126  0.36545349  0.23031320  1
  Au  Au238  1  0.36484872  0.36545349  0.23031280  1
  Au  Au239  1  0.63515126  0.63454649  0.23031218  1
  Au  Au240  1  0.36484872  0.63454649  0.23031178  1
  Au  Au241  1  0.22969746  0.63454649  0.63404478  1
  Au  Au242  1  0.77030252  0.63454649  0.63404558  1
  Au  Au243  1  0.22969746  0.36545349  0.63404580  1
  Au  Au244  1  0.77030252  0.36545349  0.63404660  1
  Au  Au245  1  0.77030249  0.36545350  0.36592740  1
  Au  Au246  1  0.22969742  0.36545350  0.36592660  1
  Au  Au247  1  0.77030249  0.63454650  0.36592638  1
  Au  Au248  1  0.22969742  0.63454650  0.36592558  1
