# generated using pymatgen
data_Pt143Au106
_symmetry_space_group_name_H-M   'P 1'
_cell_length_a   30.00000000
_cell_length_b   30.00000000
_cell_length_c   30.00000000
_cell_angle_alpha   90.00000000
_cell_angle_beta   90.00000000
_cell_angle_gamma   90.00000000
_symmetry_Int_Tables_number   1
_chemical_formula_structural   Pt143Au106
_chemical_formula_sum   'Pt143 Au106'
_cell_volume   27000.00000000
_cell_formula_units_Z   1
loop_
 _symmetry_equiv_pos_site_id
 _symmetry_equiv_pos_as_xyz
  1  'x, y, z'
loop_
 _atom_site_type_symbol
 _atom_site_label
 _atom_site_symmetry_multiplicity
 _atom_site_fract_x
 _atom_site_fract_y
 _atom_site_fract_z
 _atom_site_occupancy
  Pt  Pt0  1  0.50000002  0.50000001  0.50233990  1
  Pt  Pt1  1  0.56744189  0.50000001  0.43375471  1
  Pt  Pt2  1  0.43255809  0.50000001  0.43375471  1
  Pt  Pt3  1  0.49999999  0.56759644  0.43361417  1
  Pt  Pt4  1  0.49999999  0.43240354  0.43361417  1
  Pt  Pt5  1  0.56744189  0.50000001  0.56717684  1
  Pt  Pt6  1  0.43255809  0.50000001  0.56717684  1
  Pt  Pt7  1  0.50000002  0.56759644  0.56717684  1
  Pt  Pt8  1  0.50000002  0.43240354  0.56717684  1
  Pt  Pt9  1  0.56744189  0.56759644  0.50059574  1
  Pt  Pt10  1  0.43255809  0.56759644  0.50059574  1
  Pt  Pt11  1  0.56744189  0.43240354  0.50059574  1
  Pt  Pt12  1  0.43255809  0.43240354  0.50059574  1
  Pt  Pt13  1  0.50000002  0.50000001  0.63201374  1
  Pt  Pt14  1  0.49999999  0.50000001  0.36606501  1
  Pt  Pt15  1  0.36511622  0.50000001  0.50233990  1
  Pt  Pt16  1  0.63488382  0.50000001  0.50233990  1
  Pt  Pt17  1  0.50000002  0.36480711  0.50233990  1
  Pt  Pt18  1  0.50000002  0.63519291  0.50233990  1
  Pt  Pt19  1  0.56744189  0.56759644  0.63375794  1
  Pt  Pt20  1  0.43255809  0.56759644  0.63375794  1
  Pt  Pt21  1  0.56744189  0.43240354  0.63375794  1
  Pt  Pt22  1  0.43255809  0.43240354  0.63375794  1
  Pt  Pt23  1  0.56744189  0.56759644  0.36606501  1
  Pt  Pt24  1  0.43255809  0.56759644  0.36606501  1
  Pt  Pt25  1  0.56744189  0.43240354  0.36606501  1
  Pt  Pt26  1  0.43255809  0.43240354  0.36606501  1
  Pt  Pt27  1  0.63488379  0.56759644  0.43361417  1
  Pt  Pt28  1  0.63488379  0.43240354  0.43361417  1
  Pt  Pt29  1  0.36511619  0.56759644  0.43361417  1
  Pt  Pt30  1  0.36511619  0.43240354  0.43361417  1
  Pt  Pt31  1  0.56744189  0.36480711  0.43375471  1
  Pt  Pt32  1  0.43255809  0.36480711  0.43375471  1
  Pt  Pt33  1  0.56744189  0.63519291  0.43375471  1
  Pt  Pt34  1  0.43255809  0.63519291  0.43375471  1
  Pt  Pt35  1  0.36511622  0.56759644  0.56717684  1
  Pt  Pt36  1  0.36511622  0.43240354  0.56717684  1
  Pt  Pt37  1  0.63488382  0.56759644  0.56717684  1
  Pt  Pt38  1  0.63488382  0.43240354  0.56717684  1
  Pt  Pt39  1  0.56744189  0.36480711  0.56717684  1
  Pt  Pt40  1  0.43255809  0.36480711  0.56717684  1
  Pt  Pt41  1  0.56744189  0.63519291  0.56717684  1
  Pt  Pt42  1  0.43255809  0.63519291  0.56717684  1
  Pt  Pt43  1  0.36511622  0.50000001  0.63201374  1
  Pt  Pt44  1  0.63488382  0.50000001  0.63201374  1
  Pt  Pt45  1  0.50000002  0.36480711  0.63201374  1
  Pt  Pt46  1  0.50000002  0.63519291  0.63201374  1
  Pt  Pt47  1  0.63488379  0.50000001  0.36606501  1
  Pt  Pt48  1  0.36511619  0.50000001  0.36606501  1
  Pt  Pt49  1  0.49999999  0.36480711  0.36606501  1
  Pt  Pt50  1  0.49999999  0.63519291  0.36606501  1
  Pt  Pt51  1  0.36511622  0.36480711  0.50233990  1
  Pt  Pt52  1  0.36511622  0.63519291  0.50233990  1
  Pt  Pt53  1  0.63488382  0.36480711  0.50233990  1
  Pt  Pt54  1  0.63488382  0.63519291  0.50233990  1
  Pt  Pt55  1  0.56744189  0.50000001  0.70059894  1
  Pt  Pt56  1  0.43255809  0.50000001  0.70059894  1
  Pt  Pt57  1  0.49999999  0.56759644  0.70073951  1
  Pt  Pt58  1  0.49999999  0.43240354  0.70073951  1
  Pt  Pt59  1  0.49999999  0.56759644  0.29851584  1
  Pt  Pt60  1  0.49999999  0.43240354  0.29851584  1
  Pt  Pt61  1  0.56744189  0.50000001  0.29837527  1
  Pt  Pt62  1  0.43255809  0.50000001  0.29837527  1
  Pt  Pt63  1  0.70232569  0.50000001  0.43375471  1
  Pt  Pt64  1  0.29767429  0.50000001  0.43375471  1
  Pt  Pt65  1  0.70232569  0.50000001  0.56717684  1
  Pt  Pt66  1  0.29767429  0.50000001  0.56717684  1
  Pt  Pt67  1  0.70232569  0.56759644  0.50059574  1
  Pt  Pt68  1  0.70232569  0.43240354  0.50059574  1
  Pt  Pt69  1  0.29767429  0.56759644  0.50059574  1
  Pt  Pt70  1  0.29767429  0.43240354  0.50059574  1
  Pt  Pt71  1  0.49999999  0.70278934  0.43361417  1
  Pt  Pt72  1  0.49999999  0.29721064  0.43361417  1
  Pt  Pt73  1  0.50000002  0.70278934  0.56717684  1
  Pt  Pt74  1  0.50000002  0.29721064  0.56717684  1
  Pt  Pt75  1  0.56744189  0.70278934  0.50059574  1
  Pt  Pt76  1  0.43255809  0.70278934  0.50059574  1
  Pt  Pt77  1  0.56744189  0.29721064  0.50059574  1
  Pt  Pt78  1  0.43255809  0.29721064  0.50059574  1
  Pt  Pt79  1  0.36511622  0.36480711  0.63201374  1
  Pt  Pt80  1  0.36511622  0.63519291  0.63201374  1
  Pt  Pt81  1  0.63488382  0.36480711  0.63201374  1
  Pt  Pt82  1  0.63488382  0.63519291  0.63201374  1
  Pt  Pt83  1  0.63488379  0.36480711  0.36606501  1
  Pt  Pt84  1  0.36511619  0.36480711  0.36606501  1
  Pt  Pt85  1  0.63488379  0.63519291  0.36606501  1
  Pt  Pt86  1  0.36511619  0.63519291  0.36606501  1
  Pt  Pt87  1  0.63488379  0.56759644  0.70073951  1
  Pt  Pt88  1  0.63488379  0.43240354  0.70073951  1
  Pt  Pt89  1  0.36511619  0.56759644  0.70073951  1
  Pt  Pt90  1  0.36511619  0.43240354  0.70073951  1
  Pt  Pt91  1  0.56744189  0.36480711  0.70059894  1
  Pt  Pt92  1  0.43255809  0.36480711  0.70059894  1
  Pt  Pt93  1  0.56744189  0.63519291  0.70059894  1
  Pt  Pt94  1  0.43255809  0.63519291  0.70059894  1
  Pt  Pt95  1  0.63488379  0.56759644  0.29851584  1
  Pt  Pt96  1  0.63488379  0.43240354  0.29851584  1
  Pt  Pt97  1  0.36511619  0.56759644  0.29851584  1
  Pt  Pt98  1  0.36511619  0.43240354  0.29851584  1
  Pt  Pt99  1  0.70232569  0.56759644  0.63375794  1
  Pt  Pt100  1  0.70232569  0.43240354  0.63375794  1
  Pt  Pt101  1  0.29767429  0.56759644  0.63375794  1
  Pt  Pt102  1  0.29767429  0.43240354  0.63375794  1
  Pt  Pt103  1  0.70232569  0.56759644  0.36606501  1
  Pt  Pt104  1  0.70232569  0.43240354  0.36606501  1
  Pt  Pt105  1  0.29767429  0.56759644  0.36606501  1
  Pt  Pt106  1  0.29767429  0.43240354  0.36606501  1
  Pt  Pt107  1  0.56744189  0.36480711  0.29837527  1
  Pt  Pt108  1  0.43255809  0.36480711  0.29837527  1
  Pt  Pt109  1  0.56744189  0.63519291  0.29837527  1
  Pt  Pt110  1  0.43255809  0.63519291  0.29837527  1
  Pt  Pt111  1  0.56744189  0.70278934  0.63375794  1
  Pt  Pt112  1  0.43255809  0.70278934  0.63375794  1
  Pt  Pt113  1  0.56744189  0.29721064  0.63375794  1
  Pt  Pt114  1  0.43255809  0.29721064  0.63375794  1
  Pt  Pt115  1  0.70232569  0.36480711  0.43375471  1
  Pt  Pt116  1  0.70232569  0.63519291  0.43375471  1
  Pt  Pt117  1  0.29767429  0.36480711  0.43375471  1
  Pt  Pt118  1  0.29767429  0.63519291  0.43375471  1
  Pt  Pt119  1  0.56744189  0.70278934  0.36606501  1
  Pt  Pt120  1  0.43255809  0.70278934  0.36606501  1
  Pt  Pt121  1  0.56744189  0.29721064  0.36606501  1
  Pt  Pt122  1  0.43255809  0.29721064  0.36606501  1
  Pt  Pt123  1  0.70232569  0.36480711  0.56717684  1
  Pt  Pt124  1  0.70232569  0.63519291  0.56717684  1
  Pt  Pt125  1  0.29767429  0.36480711  0.56717684  1
  Pt  Pt126  1  0.29767429  0.63519291  0.56717684  1
  Pt  Pt127  1  0.63488379  0.70278934  0.43361417  1
  Pt  Pt128  1  0.36511619  0.70278934  0.43361417  1
  Pt  Pt129  1  0.63488379  0.29721064  0.43361417  1
  Pt  Pt130  1  0.36511619  0.29721064  0.43361417  1
  Pt  Pt131  1  0.36511622  0.70278934  0.56717684  1
  Pt  Pt132  1  0.36511622  0.29721064  0.56717684  1
  Pt  Pt133  1  0.63488382  0.70278934  0.56717684  1
  Pt  Pt134  1  0.63488382  0.29721064  0.56717684  1
  Pt  Pt135  1  0.49999999  0.50000001  0.76828867  1
  Pt  Pt136  1  0.23023242  0.50000001  0.50233990  1
  Pt  Pt137  1  0.76976762  0.50000001  0.50233990  1
  Pt  Pt138  1  0.50000002  0.50000001  0.22979007  1
  Pt  Pt139  1  0.50000002  0.22961421  0.50233990  1
  Pt  Pt140  1  0.50000002  0.77038581  0.50233990  1
  Pt  Pt141  1  0.56744189  0.56759644  0.76828867  1
  Pt  Pt142  1  0.43255809  0.56759644  0.76828867  1
  Au  Au143  1  0.56744189  0.43240354  0.76828867  1
  Au  Au144  1  0.43255809  0.43240354  0.76828867  1
  Au  Au145  1  0.70232569  0.50000001  0.70059894  1
  Au  Au146  1  0.29767429  0.50000001  0.70059894  1
  Au  Au147  1  0.56744189  0.56759644  0.23153427  1
  Au  Au148  1  0.43255809  0.56759644  0.23153427  1
  Au  Au149  1  0.56744189  0.43240354  0.23153427  1
  Au  Au150  1  0.43255809  0.43240354  0.23153427  1
  Au  Au151  1  0.49999999  0.70278934  0.70073951  1
  Au  Au152  1  0.49999999  0.29721064  0.70073951  1
  Au  Au153  1  0.70232569  0.50000001  0.29837527  1
  Au  Au154  1  0.29767429  0.50000001  0.29837527  1
  Au  Au155  1  0.49999999  0.70278934  0.29851584  1
  Au  Au156  1  0.49999999  0.29721064  0.29851584  1
  Au  Au157  1  0.76976759  0.56759644  0.43361417  1
  Au  Au158  1  0.76976759  0.43240354  0.43361417  1
  Au  Au159  1  0.23023239  0.56759644  0.43361417  1
  Au  Au160  1  0.23023239  0.43240354  0.43361417  1
  Au  Au161  1  0.23023242  0.56759644  0.56717684  1
  Au  Au162  1  0.23023242  0.43240354  0.56717684  1
  Au  Au163  1  0.76976762  0.56759644  0.56717684  1
  Au  Au164  1  0.76976762  0.43240354  0.56717684  1
  Au  Au165  1  0.56744189  0.22961421  0.43375471  1
  Au  Au166  1  0.43255809  0.22961421  0.43375471  1
  Au  Au167  1  0.56744189  0.77038581  0.43375471  1
  Au  Au168  1  0.43255809  0.77038581  0.43375471  1
  Au  Au169  1  0.70232569  0.70278934  0.50059574  1
  Au  Au170  1  0.29767429  0.70278934  0.50059574  1
  Au  Au171  1  0.70232569  0.29721064  0.50059574  1
  Au  Au172  1  0.29767429  0.29721064  0.50059574  1
  Au  Au173  1  0.56744189  0.22961421  0.56717684  1
  Au  Au174  1  0.43255809  0.22961421  0.56717684  1
  Au  Au175  1  0.56744189  0.77038581  0.56717684  1
  Au  Au176  1  0.43255809  0.77038581  0.56717684  1
  Au  Au177  1  0.63488379  0.50000001  0.76828867  1
  Au  Au178  1  0.36511619  0.50000001  0.76828867  1
  Au  Au179  1  0.23023242  0.50000001  0.63201374  1
  Au  Au180  1  0.76976762  0.50000001  0.63201374  1
  Au  Au181  1  0.49999999  0.36480711  0.76828867  1
  Au  Au182  1  0.49999999  0.63519291  0.76828867  1
  Au  Au183  1  0.50000002  0.22961421  0.63201374  1
  Au  Au184  1  0.50000002  0.77038581  0.63201374  1
  Au  Au185  1  0.76976759  0.50000001  0.36606501  1
  Au  Au186  1  0.23023239  0.50000001  0.36606501  1
  Au  Au187  1  0.49999999  0.22961421  0.36606501  1
  Au  Au188  1  0.49999999  0.77038581  0.36606501  1
  Au  Au189  1  0.23023242  0.36480711  0.50233990  1
  Au  Au190  1  0.23023242  0.63519291  0.50233990  1
  Au  Au191  1  0.76976762  0.36480711  0.50233990  1
  Au  Au192  1  0.76976762  0.63519291  0.50233990  1
  Au  Au193  1  0.36511622  0.50000001  0.22979007  1
  Au  Au194  1  0.63488382  0.50000001  0.22979007  1
  Au  Au195  1  0.50000002  0.36480711  0.22979007  1
  Au  Au196  1  0.50000002  0.63519291  0.22979007  1
  Au  Au197  1  0.36511622  0.22961421  0.50233990  1
  Au  Au198  1  0.36511622  0.77038581  0.50233990  1
  Au  Au199  1  0.63488382  0.22961421  0.50233990  1
  Au  Au200  1  0.63488382  0.77038581  0.50233990  1
  Au  Au201  1  0.70232569  0.36480711  0.70059894  1
  Au  Au202  1  0.70232569  0.63519291  0.70059894  1
  Au  Au203  1  0.29767429  0.36480711  0.70059894  1
  Au  Au204  1  0.29767429  0.63519291  0.70059894  1
  Au  Au205  1  0.63488379  0.70278934  0.70073951  1
  Au  Au206  1  0.36511619  0.70278934  0.70073951  1
  Au  Au207  1  0.63488379  0.29721064  0.70073951  1
  Au  Au208  1  0.36511619  0.29721064  0.70073951  1
  Au  Au209  1  0.70232569  0.36480711  0.29837527  1
  Au  Au210  1  0.70232569  0.63519291  0.29837527  1
  Au  Au211  1  0.29767429  0.36480711  0.29837527  1
  Au  Au212  1  0.29767429  0.63519291  0.29837527  1
  Au  Au213  1  0.63488379  0.70278934  0.29851584  1
  Au  Au214  1  0.36511619  0.70278934  0.29851584  1
  Au  Au215  1  0.63488379  0.29721064  0.29851584  1
  Au  Au216  1  0.36511619  0.29721064  0.29851584  1
  Au  Au217  1  0.70232569  0.70278934  0.63375794  1
  Au  Au218  1  0.29767429  0.70278934  0.63375794  1
  Au  Au219  1  0.70232569  0.29721064  0.63375794  1
  Au  Au220  1  0.29767429  0.29721064  0.63375794  1
  Au  Au221  1  0.70232569  0.70278934  0.36606501  1
  Au  Au222  1  0.29767429  0.70278934  0.36606501  1
  Au  Au223  1  0.70232569  0.29721064  0.36606501  1
  Au  Au224  1  0.29767429  0.29721064  0.36606501  1
  Au  Au225  1  0.63488379  0.36480711  0.76828867  1
  Au  Au226  1  0.36511619  0.36480711  0.76828867  1
  Au  Au227  1  0.63488379  0.63519291  0.76828867  1
  Au  Au228  1  0.36511619  0.63519291  0.76828867  1
  Au  Au229  1  0.23023242  0.36480711  0.63201374  1
  Au  Au230  1  0.23023242  0.63519291  0.63201374  1
  Au  Au231  1  0.76976762  0.36480711  0.63201374  1
  Au  Au232  1  0.76976762  0.63519291  0.63201374  1
  Au  Au233  1  0.36511622  0.22961421  0.63201374  1
  Au  Au234  1  0.36511622  0.77038581  0.63201374  1
  Au  Au235  1  0.63488382  0.22961421  0.63201374  1
  Au  Au236  1  0.63488382  0.77038581  0.63201374  1
  Au  Au237  1  0.76976759  0.36480711  0.36606501  1
  Au  Au238  1  0.76976759  0.63519291  0.36606501  1
  Au  Au239  1  0.23023239  0.36480711  0.36606501  1
  Au  Au240  1  0.23023239  0.63519291  0.36606501  1
  Au  Au241  1  0.63488379  0.22961421  0.36606501  1
  Au  Au242  1  0.36511619  0.22961421  0.36606501  1
  Au  Au243  1  0.63488379  0.77038581  0.36606501  1
  Au  Au244  1  0.36511619  0.77038581  0.36606501  1
  Au  Au245  1  0.36511622  0.36480711  0.22979007  1
  Au  Au246  1  0.36511622  0.63519291  0.22979007  1
  Au  Au247  1  0.63488382  0.36480711  0.22979007  1
  Au  Au248  1  0.63488382  0.63519291  0.22979007  1
