data_3D\Atomistic\(3)
_audit_creation_date              2023-02-07
_audit_creation_method            'Materials Studio'
_symmetry_space_group_name_H-M    'P1'
_symmetry_Int_Tables_number       1
_symmetry_cell_setting            triclinic
loop_
_symmetry_equiv_pos_as_xyz
  x,y,z
_cell_length_a                    30.0000
_cell_length_b                    30.0000
_cell_length_c                    30.0000
_cell_angle_alpha                 90.0000
_cell_angle_beta                  90.0000
_cell_angle_gamma                 90.0000
loop_
_atom_site_label
_atom_site_type_symbol
_atom_site_fract_x
_atom_site_fract_y
_atom_site_fract_z
_atom_site_U_iso_or_equiv
_atom_site_adp_type
_atom_site_occupancy
Au1    Au    1.43306   1.36612   1.22826   0.00000  Uiso   1.00
Au2    Au    1.56694   1.36612   1.22826   0.00000  Uiso   1.00
Au3    Au    1.36612   1.43306   1.22826   0.00000  Uiso   1.00
Au4    Au    1.43306   1.50000   1.22826   0.00000  Uiso   1.00
Au5    Au    1.50000   1.43306   1.22826   0.00000  Uiso   1.00
Au6    Au    1.56694   1.50000   1.22826   0.00000  Uiso   1.00
Au7    Au    1.63388   1.43306   1.22826   0.00000  Uiso   1.00
Au8    Au    1.36612   1.56694   1.22826   0.00000  Uiso   1.00
Au9    Au    1.43306   1.63388   1.22826   0.00000  Uiso   1.00
Au10   Au    1.50000   1.56694   1.22826   0.00000  Uiso   1.00
Au11   Au    1.56694   1.63388   1.22826   0.00000  Uiso   1.00
Au12   Au    1.63388   1.56694   1.22826   0.00000  Uiso   1.00
Au13   Au    1.36612   1.23223   1.42717   0.00000  Uiso   1.00
Au14   Au    1.36612   1.23223   1.57283   0.00000  Uiso   1.00
Au15   Au    1.43306   1.23223   1.35779   0.00000  Uiso   1.00
Au16   Au    1.43306   1.23223   1.64221   0.00000  Uiso   1.00
Pt17   Pt    1.43306   1.23223   1.50000   0.00000  Uiso   1.00
Pt18   Pt    1.50000   1.23223   1.42717   0.00000  Uiso   1.00
Pt19   Pt    1.50000   1.23223   1.57283   0.00000  Uiso   1.00
Au20   Au    1.56694   1.23223   1.35779   0.00000  Uiso   1.00
Au21   Au    1.56694   1.23223   1.64221   0.00000  Uiso   1.00
Pt22   Pt    1.56694   1.23223   1.50000   0.00000  Uiso   1.00
Au23   Au    1.63388   1.23223   1.42717   0.00000  Uiso   1.00
Au24   Au    1.63388   1.23223   1.57283   0.00000  Uiso   1.00
Au25   Au    1.23223   1.36612   1.42717   0.00000  Uiso   1.00
Au26   Au    1.23223   1.36612   1.57283   0.00000  Uiso   1.00
Au27   Au    1.29917   1.36612   1.35779   0.00000  Uiso   1.00
Au28   Au    1.29917   1.36612   1.64221   0.00000  Uiso   1.00
Au29   Au    1.36612   1.29917   1.35779   0.00000  Uiso   1.00
Au30   Au    1.36612   1.29917   1.64221   0.00000  Uiso   1.00
Au31   Au    1.36612   1.36612   1.29302   0.00000  Uiso   1.00
Au32   Au    1.29917   1.29917   1.42717   0.00000  Uiso   1.00
Au33   Au    1.29917   1.29917   1.57283   0.00000  Uiso   1.00
Pt34   Pt    1.29917   1.36612   1.50000   0.00000  Uiso   1.00
Pt35   Pt    1.36612   1.29917   1.50000   0.00000  Uiso   1.00
Pt36   Pt    1.36612   1.36612   1.42717   0.00000  Uiso   1.00
Pt37   Pt    1.36612   1.36612   1.57283   0.00000  Uiso   1.00
Au38   Au    1.43306   1.29917   1.29302   0.00000  Uiso   1.00
Pt39   Pt    1.43306   1.36612   1.35779   0.00000  Uiso   1.00
Pt40   Pt    1.43306   1.36612   1.64221   0.00000  Uiso   1.00
Pt41   Pt    1.50000   1.29917   1.35779   0.00000  Uiso   1.00
Pt42   Pt    1.50000   1.29917   1.64221   0.00000  Uiso   1.00
Pt43   Pt    1.50000   1.36612   1.29302   0.00000  Uiso   1.00
Pt44   Pt    1.43306   1.29917   1.42717   0.00000  Uiso   1.00
Pt45   Pt    1.43306   1.29917   1.57283   0.00000  Uiso   1.00
Pt46   Pt    1.43306   1.36612   1.50000   0.00000  Uiso   1.00
Pt47   Pt    1.50000   1.29917   1.50000   0.00000  Uiso   1.00
Pt48   Pt    1.50000   1.36612   1.42717   0.00000  Uiso   1.00
Pt49   Pt    1.50000   1.36612   1.57283   0.00000  Uiso   1.00
Au50   Au    1.56694   1.29917   1.29302   0.00000  Uiso   1.00
Pt51   Pt    1.56694   1.36612   1.35779   0.00000  Uiso   1.00
Pt52   Pt    1.56694   1.36612   1.64221   0.00000  Uiso   1.00
Au53   Au    1.63388   1.29917   1.35779   0.00000  Uiso   1.00
Au54   Au    1.63388   1.29917   1.64221   0.00000  Uiso   1.00
Au55   Au    1.63388   1.36612   1.29302   0.00000  Uiso   1.00
Pt56   Pt    1.56694   1.29917   1.42717   0.00000  Uiso   1.00
Pt57   Pt    1.56694   1.29917   1.57283   0.00000  Uiso   1.00
Pt58   Pt    1.56694   1.36612   1.50000   0.00000  Uiso   1.00
Pt59   Pt    1.63388   1.29917   1.50000   0.00000  Uiso   1.00
Pt60   Pt    1.63388   1.36612   1.42717   0.00000  Uiso   1.00
Pt61   Pt    1.63388   1.36612   1.57283   0.00000  Uiso   1.00
Au62   Au    1.70083   1.36612   1.35779   0.00000  Uiso   1.00
Au63   Au    1.70083   1.36612   1.64221   0.00000  Uiso   1.00
Au64   Au    1.70083   1.29917   1.42717   0.00000  Uiso   1.00
Au65   Au    1.70083   1.29917   1.57283   0.00000  Uiso   1.00
Pt66   Pt    1.70083   1.36612   1.50000   0.00000  Uiso   1.00
Au67   Au    1.76777   1.36612   1.42717   0.00000  Uiso   1.00
Au68   Au    1.76777   1.36612   1.57283   0.00000  Uiso   1.00
Au69   Au    1.23223   1.43306   1.35779   0.00000  Uiso   1.00
Au70   Au    1.23223   1.43306   1.64221   0.00000  Uiso   1.00
Pt71   Pt    1.23223   1.43306   1.50000   0.00000  Uiso   1.00
Pt72   Pt    1.23223   1.50000   1.42717   0.00000  Uiso   1.00
Pt73   Pt    1.23223   1.50000   1.57283   0.00000  Uiso   1.00
Au74   Au    1.29917   1.43306   1.29302   0.00000  Uiso   1.00
Pt75   Pt    1.29917   1.50000   1.35779   0.00000  Uiso   1.00
Pt76   Pt    1.29917   1.50000   1.64221   0.00000  Uiso   1.00
Pt77   Pt    1.36612   1.43306   1.35779   0.00000  Uiso   1.00
Pt78   Pt    1.36612   1.43306   1.64221   0.00000  Uiso   1.00
Pt79   Pt    1.36612   1.50000   1.29302   0.00000  Uiso   1.00
Pt80   Pt    1.29917   1.43306   1.42717   0.00000  Uiso   1.00
Pt81   Pt    1.29917   1.43306   1.57283   0.00000  Uiso   1.00
Pt82   Pt    1.29917   1.50000   1.50000   0.00000  Uiso   1.00
Pt83   Pt    1.36612   1.43306   1.50000   0.00000  Uiso   1.00
Pt84   Pt    1.36612   1.50000   1.42717   0.00000  Uiso   1.00
Pt85   Pt    1.36612   1.50000   1.57283   0.00000  Uiso   1.00
Pt86   Pt    1.43306   1.43306   1.29302   0.00000  Uiso   1.00
Pt87   Pt    1.43306   1.50000   1.35779   0.00000  Uiso   1.00
Pt88   Pt    1.43306   1.50000   1.64221   0.00000  Uiso   1.00
Pt89   Pt    1.50000   1.43306   1.35779   0.00000  Uiso   1.00
Pt90   Pt    1.50000   1.43306   1.64221   0.00000  Uiso   1.00
Pt91   Pt    1.50000   1.50000   1.29302   0.00000  Uiso   1.00
Pt92   Pt    1.43306   1.43306   1.42717   0.00000  Uiso   1.00
Pt93   Pt    1.43306   1.43306   1.57283   0.00000  Uiso   1.00
Pt94   Pt    1.43306   1.50000   1.50000   0.00000  Uiso   1.00
Pt95   Pt    1.50000   1.43306   1.50000   0.00000  Uiso   1.00
Pt96   Pt    1.50000   1.50000   1.42717   0.00000  Uiso   1.00
Pt97   Pt    1.50000   1.50000   1.57283   0.00000  Uiso   1.00
Pt98   Pt    1.56694   1.43306   1.29302   0.00000  Uiso   1.00
Pt99   Pt    1.56694   1.50000   1.35779   0.00000  Uiso   1.00
Pt100  Pt    1.56694   1.50000   1.64221   0.00000  Uiso   1.00
Pt101  Pt    1.63388   1.43306   1.35779   0.00000  Uiso   1.00
Pt102  Pt    1.63388   1.43306   1.64221   0.00000  Uiso   1.00
Pt103  Pt    1.63388   1.50000   1.29302   0.00000  Uiso   1.00
Pt104  Pt    1.56694   1.43306   1.42717   0.00000  Uiso   1.00
Pt105  Pt    1.56694   1.43306   1.57283   0.00000  Uiso   1.00
Pt106  Pt    1.56694   1.50000   1.50000   0.00000  Uiso   1.00
Pt107  Pt    1.63388   1.43306   1.50000   0.00000  Uiso   1.00
Pt108  Pt    1.63388   1.50000   1.42717   0.00000  Uiso   1.00
Pt109  Pt    1.63388   1.50000   1.57283   0.00000  Uiso   1.00
Au110  Au    1.70083   1.43306   1.29302   0.00000  Uiso   1.00
Pt111  Pt    1.70083   1.50000   1.35779   0.00000  Uiso   1.00
Pt112  Pt    1.70083   1.50000   1.64221   0.00000  Uiso   1.00
Au113  Au    1.76777   1.43306   1.35779   0.00000  Uiso   1.00
Au114  Au    1.76777   1.43306   1.64221   0.00000  Uiso   1.00
Pt115  Pt    1.70083   1.43306   1.42717   0.00000  Uiso   1.00
Pt116  Pt    1.70083   1.43306   1.57283   0.00000  Uiso   1.00
Pt117  Pt    1.70083   1.50000   1.50000   0.00000  Uiso   1.00
Pt118  Pt    1.76777   1.43306   1.50000   0.00000  Uiso   1.00
Pt119  Pt    1.76777   1.50000   1.42717   0.00000  Uiso   1.00
Pt120  Pt    1.76777   1.50000   1.57283   0.00000  Uiso   1.00
Au121  Au    1.23223   1.56694   1.35779   0.00000  Uiso   1.00
Au122  Au    1.23223   1.56694   1.64221   0.00000  Uiso   1.00
Au123  Au    1.23223   1.56694   1.50000   0.00000  Uiso   1.00
Au124  Au    1.23223   1.63388   1.42717   0.00000  Uiso   1.00
Au125  Au    1.23223   1.63388   1.57283   0.00000  Uiso   1.00
Au126  Au    1.29917   1.56694   1.29302   0.00000  Uiso   1.00
Au127  Au    1.29917   1.63388   1.35779   0.00000  Uiso   1.00
Au128  Au    1.29917   1.63388   1.64221   0.00000  Uiso   1.00
Pt129  Pt    1.36612   1.56694   1.35779   0.00000  Uiso   1.00
Pt130  Pt    1.36612   1.56694   1.64221   0.00000  Uiso   1.00
Au131  Au    1.36612   1.63388   1.29302   0.00000  Uiso   1.00
Pt132  Pt    1.29917   1.56694   1.42717   0.00000  Uiso   1.00
Pt133  Pt    1.29917   1.56694   1.57283   0.00000  Uiso   1.00
Pt134  Pt    1.29917   1.63388   1.50000   0.00000  Uiso   1.00
Pt135  Pt    1.36612   1.56694   1.50000   0.00000  Uiso   1.00
Pt136  Pt    1.36612   1.63388   1.42717   0.00000  Uiso   1.00
Pt137  Pt    1.36612   1.63388   1.57283   0.00000  Uiso   1.00
Pt138  Pt    1.43306   1.56694   1.29302   0.00000  Uiso   1.00
Pt139  Pt    1.43306   1.63388   1.35779   0.00000  Uiso   1.00
Pt140  Pt    1.43306   1.63388   1.64221   0.00000  Uiso   1.00
Pt141  Pt    1.50000   1.56694   1.35779   0.00000  Uiso   1.00
Pt142  Pt    1.50000   1.56694   1.64221   0.00000  Uiso   1.00
Pt143  Pt    1.50000   1.63388   1.29302   0.00000  Uiso   1.00
Pt144  Pt    1.43306   1.56694   1.42717   0.00000  Uiso   1.00
Pt145  Pt    1.43306   1.56694   1.57283   0.00000  Uiso   1.00
Pt146  Pt    1.43306   1.63388   1.50000   0.00000  Uiso   1.00
Pt147  Pt    1.50000   1.56694   1.50000   0.00000  Uiso   1.00
Pt148  Pt    1.50000   1.63388   1.42717   0.00000  Uiso   1.00
Pt149  Pt    1.50000   1.63388   1.57283   0.00000  Uiso   1.00
Pt150  Pt    1.56694   1.56694   1.29302   0.00000  Uiso   1.00
Pt151  Pt    1.56694   1.63388   1.35779   0.00000  Uiso   1.00
Pt152  Pt    1.56694   1.63388   1.64221   0.00000  Uiso   1.00
Pt153  Pt    1.63388   1.56694   1.35779   0.00000  Uiso   1.00
Pt154  Pt    1.63388   1.56694   1.64221   0.00000  Uiso   1.00
Au155  Au    1.63388   1.63388   1.29302   0.00000  Uiso   1.00
Pt156  Pt    1.56694   1.56694   1.42717   0.00000  Uiso   1.00
Pt157  Pt    1.56694   1.56694   1.57283   0.00000  Uiso   1.00
Pt158  Pt    1.56694   1.63388   1.50000   0.00000  Uiso   1.00
Pt159  Pt    1.63388   1.56694   1.50000   0.00000  Uiso   1.00
Pt160  Pt    1.63388   1.63388   1.42717   0.00000  Uiso   1.00
Pt161  Pt    1.63388   1.63388   1.57283   0.00000  Uiso   1.00
Au162  Au    1.70083   1.56694   1.29302   0.00000  Uiso   1.00
Au163  Au    1.70083   1.63388   1.35779   0.00000  Uiso   1.00
Au164  Au    1.70083   1.63388   1.64221   0.00000  Uiso   1.00
Au165  Au    1.76777   1.56694   1.35779   0.00000  Uiso   1.00
Au166  Au    1.76777   1.56694   1.64221   0.00000  Uiso   1.00
Pt167  Pt    1.70083   1.56694   1.42717   0.00000  Uiso   1.00
Pt168  Pt    1.70083   1.56694   1.57283   0.00000  Uiso   1.00
Pt169  Pt    1.70083   1.63388   1.50000   0.00000  Uiso   1.00
Au170  Au    1.76777   1.56694   1.50000   0.00000  Uiso   1.00
Au171  Au    1.76777   1.63388   1.42717   0.00000  Uiso   1.00
Au172  Au    1.76777   1.63388   1.57283   0.00000  Uiso   1.00
Au173  Au    1.36612   1.70083   1.35779   0.00000  Uiso   1.00
Au174  Au    1.36612   1.70083   1.64221   0.00000  Uiso   1.00
Au175  Au    1.29917   1.70083   1.42717   0.00000  Uiso   1.00
Au176  Au    1.29917   1.70083   1.57283   0.00000  Uiso   1.00
Pt177  Pt    1.36612   1.70083   1.50000   0.00000  Uiso   1.00
Au178  Au    1.36612   1.76777   1.42717   0.00000  Uiso   1.00
Au179  Au    1.36612   1.76777   1.57283   0.00000  Uiso   1.00
Au180  Au    1.43306   1.70083   1.29302   0.00000  Uiso   1.00
Au181  Au    1.43306   1.76777   1.35779   0.00000  Uiso   1.00
Au182  Au    1.43306   1.76777   1.64221   0.00000  Uiso   1.00
Pt183  Pt    1.50000   1.70083   1.35779   0.00000  Uiso   1.00
Pt184  Pt    1.50000   1.70083   1.64221   0.00000  Uiso   1.00
Pt185  Pt    1.43306   1.70083   1.42717   0.00000  Uiso   1.00
Pt186  Pt    1.43306   1.70083   1.57283   0.00000  Uiso   1.00
Pt187  Pt    1.43306   1.76777   1.50000   0.00000  Uiso   1.00
Pt188  Pt    1.50000   1.70083   1.50000   0.00000  Uiso   1.00
Pt189  Pt    1.50000   1.76777   1.42717   0.00000  Uiso   1.00
Pt190  Pt    1.50000   1.76777   1.57283   0.00000  Uiso   1.00
Au191  Au    1.56694   1.70083   1.29302   0.00000  Uiso   1.00
Au192  Au    1.56694   1.76777   1.35779   0.00000  Uiso   1.00
Au193  Au    1.56694   1.76777   1.64221   0.00000  Uiso   1.00
Au194  Au    1.63388   1.70083   1.35779   0.00000  Uiso   1.00
Au195  Au    1.63388   1.70083   1.64221   0.00000  Uiso   1.00
Pt196  Pt    1.56694   1.70083   1.42717   0.00000  Uiso   1.00
Pt197  Pt    1.56694   1.70083   1.57283   0.00000  Uiso   1.00
Pt198  Pt    1.56694   1.76777   1.50000   0.00000  Uiso   1.00
Pt199  Pt    1.63388   1.70083   1.50000   0.00000  Uiso   1.00
Au200  Au    1.63388   1.76777   1.42717   0.00000  Uiso   1.00
Au201  Au    1.63388   1.76777   1.57283   0.00000  Uiso   1.00
Au202  Au    1.70083   1.70083   1.42717   0.00000  Uiso   1.00
Au203  Au    1.70083   1.70083   1.57283   0.00000  Uiso   1.00
Au204  Au    1.36612   1.36612   1.70698   0.00000  Uiso   1.00
Au205  Au    1.43306   1.29917   1.70698   0.00000  Uiso   1.00
Au206  Au    1.43306   1.36612   1.77174   0.00000  Uiso   1.00
Pt207  Pt    1.50000   1.36612   1.70698   0.00000  Uiso   1.00
Au208  Au    1.56694   1.29917   1.70698   0.00000  Uiso   1.00
Au209  Au    1.56694   1.36612   1.77174   0.00000  Uiso   1.00
Au210  Au    1.63388   1.36612   1.70698   0.00000  Uiso   1.00
Au211  Au    1.29917   1.43306   1.70698   0.00000  Uiso   1.00
Au212  Au    1.36612   1.43306   1.77174   0.00000  Uiso   1.00
Pt213  Pt    1.36612   1.50000   1.70698   0.00000  Uiso   1.00
Pt214  Pt    1.43306   1.43306   1.70698   0.00000  Uiso   1.00
Au215  Au    1.43306   1.50000   1.77174   0.00000  Uiso   1.00
Au216  Au    1.50000   1.43306   1.77174   0.00000  Uiso   1.00
Pt217  Pt    1.50000   1.50000   1.70698   0.00000  Uiso   1.00
Pt218  Pt    1.56694   1.43306   1.70698   0.00000  Uiso   1.00
Au219  Au    1.56694   1.50000   1.77174   0.00000  Uiso   1.00
Au220  Au    1.63388   1.43306   1.77174   0.00000  Uiso   1.00
Pt221  Pt    1.63388   1.50000   1.70698   0.00000  Uiso   1.00
Au222  Au    1.70083   1.43306   1.70698   0.00000  Uiso   1.00
Au223  Au    1.29917   1.56694   1.70698   0.00000  Uiso   1.00
Au224  Au    1.36612   1.56694   1.77174   0.00000  Uiso   1.00
Au225  Au    1.36612   1.63388   1.70698   0.00000  Uiso   1.00
Pt226  Pt    1.43306   1.56694   1.70698   0.00000  Uiso   1.00
Au227  Au    1.43306   1.63388   1.77174   0.00000  Uiso   1.00
Au228  Au    1.50000   1.56694   1.77174   0.00000  Uiso   1.00
Pt229  Pt    1.50000   1.63388   1.70698   0.00000  Uiso   1.00
Pt230  Pt    1.56694   1.56694   1.70698   0.00000  Uiso   1.00
Au231  Au    1.56694   1.63388   1.77174   0.00000  Uiso   1.00
Au232  Au    1.63388   1.56694   1.77174   0.00000  Uiso   1.00
Au233  Au    1.63388   1.63388   1.70698   0.00000  Uiso   1.00
Au234  Au    1.70083   1.56694   1.70698   0.00000  Uiso   1.00
Au235  Au    1.43306   1.70083   1.70698   0.00000  Uiso   1.00
Au236  Au    1.56694   1.70083   1.70698   0.00000  Uiso   1.00
