# generated using pymatgen
data_HPt112Au137
_symmetry_space_group_name_H-M   'P 1'
_cell_length_a   30.00000000
_cell_length_b   30.00000000
_cell_length_c   30.00000000
_cell_angle_alpha   90.00000000
_cell_angle_beta   90.00000000
_cell_angle_gamma   90.00000000
_symmetry_Int_Tables_number   1
_chemical_formula_structural   HPt112Au137
_chemical_formula_sum   'H1 Pt112 Au137'
_cell_volume   27000.00000000
_cell_formula_units_Z   1
loop_
 _symmetry_equiv_pos_site_id
 _symmetry_equiv_pos_as_xyz
  1  'x, y, z'
loop_
 _atom_site_type_symbol
 _atom_site_label
 _atom_site_symmetry_multiplicity
 _atom_site_fract_x
 _atom_site_fract_y
 _atom_site_fract_z
 _atom_site_occupancy
  H  H0  1  0.34419284  0.39287875  0.82661343  1
  Pt  Pt1  1  0.50003418  0.50009557  0.50046421  1
  Pt  Pt2  1  0.43561777  0.54606089  0.54571494  1
  Pt  Pt3  1  0.56418946  0.45405250  0.45448505  1
  Pt  Pt4  1  0.43475418  0.54582486  0.45350966  1
  Pt  Pt5  1  0.49918239  0.49976555  0.40806111  1
  Pt  Pt6  1  0.50084598  0.50066270  0.59274604  1
  Pt  Pt7  1  0.56526928  0.45428918  0.54702402  1
  Pt  Pt8  1  0.50140757  0.59263616  0.50069335  1
  Pt  Pt9  1  0.56581484  0.54656611  0.45475732  1
  Pt  Pt10  1  0.43408145  0.45360669  0.54565277  1
  Pt  Pt11  1  0.49869240  0.40753391  0.49994317  1
  Pt  Pt12  1  0.43305921  0.45297494  0.45317277  1
  Pt  Pt13  1  0.56707802  0.54704247  0.54739398  1
  Pt  Pt14  1  0.50047375  0.59335689  0.40741538  1
  Pt  Pt15  1  0.49952519  0.40720130  0.59317090  1
  Pt  Pt16  1  0.50228502  0.59379879  0.59381214  1
  Pt  Pt17  1  0.36764246  0.49947656  0.49885295  1
  Pt  Pt18  1  0.63213848  0.50066116  0.50123938  1
  Pt  Pt19  1  0.49773820  0.40644895  0.40667536  1
  Pt  Pt20  1  0.56497677  0.54622136  0.36197096  1
  Pt  Pt21  1  0.56426841  0.36153762  0.54634287  1
  Pt  Pt22  1  0.43478609  0.45401778  0.63851871  1
  Pt  Pt23  1  0.43578014  0.63865408  0.45402613  1
  Pt  Pt24  1  0.43555780  0.54749531  0.63804748  1
  Pt  Pt25  1  0.63038644  0.40857562  0.49974997  1
  Pt  Pt26  1  0.56377703  0.45283558  0.36186615  1
  Pt  Pt27  1  0.36955613  0.59166699  0.50041505  1
  Pt  Pt28  1  0.56382595  0.36183008  0.45293054  1
  Pt  Pt29  1  0.36919582  0.50081510  0.59121814  1
  Pt  Pt30  1  0.63068370  0.49935603  0.40891539  1
  Pt  Pt31  1  0.43619749  0.63840355  0.54739762  1
  Pt  Pt32  1  0.43367486  0.54685521  0.36072642  1
  Pt  Pt33  1  0.56611719  0.45343511  0.64047670  1
  Pt  Pt34  1  0.56699114  0.64010343  0.45383109  1
  Pt  Pt35  1  0.43303999  0.36006108  0.54647228  1
  Pt  Pt36  1  0.56746997  0.54650862  0.64089731  1
  Pt  Pt37  1  0.63264942  0.49920381  0.59454688  1
  Pt  Pt38  1  0.43325121  0.45373593  0.35969896  1
  Pt  Pt39  1  0.36743524  0.50036268  0.40590116  1
  Pt  Pt40  1  0.36705385  0.40611330  0.49981321  1
  Pt  Pt41  1  0.56750203  0.64085168  0.54681450  1
  Pt  Pt42  1  0.43271562  0.35906382  0.45365277  1
  Pt  Pt43  1  0.63285278  0.59385670  0.49989972  1
  Pt  Pt44  1  0.63080000  0.40697249  0.40731636  1
  Pt  Pt45  1  0.36917906  0.59342875  0.59299044  1
  Pt  Pt46  1  0.50044702  0.50049059  0.68618557  1
  Pt  Pt47  1  0.63136732  0.40648580  0.59301196  1
  Pt  Pt48  1  0.49940806  0.49996469  0.31409341  1
  Pt  Pt49  1  0.36865073  0.59354851  0.40727483  1
  Pt  Pt50  1  0.36778012  0.40740874  0.59264874  1
  Pt  Pt51  1  0.49914825  0.31366587  0.49981232  1
  Pt  Pt52  1  0.63214461  0.59258351  0.40693059  1
  Pt  Pt53  1  0.50102751  0.68646711  0.50061524  1
  Pt  Pt54  1  0.63331759  0.59349327  0.59416908  1
  Pt  Pt55  1  0.36677413  0.40629669  0.40626027  1
  Pt  Pt56  1  0.56482815  0.36038959  0.64033444  1
  Pt  Pt57  1  0.49953357  0.59367586  0.31425218  1
  Pt  Pt58  1  0.50024181  0.40666591  0.68647192  1
  Pt  Pt59  1  0.43515038  0.64009223  0.36030316  1
  Pt  Pt60  1  0.49855750  0.31377057  0.59366415  1
  Pt  Pt61  1  0.43398883  0.36010264  0.63946920  1
  Pt  Pt62  1  0.56582982  0.64001267  0.36069162  1
  Pt  Pt63  1  0.50165596  0.68650011  0.40687612  1
  Pt  Pt64  1  0.56385803  0.35937909  0.35976847  1
  Pt  Pt65  1  0.69847571  0.45358880  0.45434967  1
  Pt  Pt66  1  0.30165624  0.54661079  0.54577423  1
  Pt  Pt67  1  0.43598813  0.64087514  0.64063917  1
  Pt  Pt68  1  0.69837121  0.45323986  0.54675514  1
  Pt  Pt69  1  0.50101740  0.59398942  0.68672810  1
  Pt  Pt70  1  0.49887226  0.40581835  0.31321286  1
  Pt  Pt71  1  0.30157783  0.54667887  0.45309861  1
  Pt  Pt72  1  0.30135226  0.45410686  0.54634031  1
  Pt  Pt73  1  0.49845575  0.31312479  0.40593543  1
  Pt  Pt74  1  0.69877859  0.54620968  0.45384085  1
  Pt  Pt75  1  0.50170236  0.68702079  0.59439068  1
  Pt  Pt76  1  0.30164925  0.45393850  0.45329999  1
  Pt  Pt77  1  0.43322184  0.35996952  0.35991028  1
  Pt  Pt78  1  0.56710764  0.64011256  0.64045109  1
  Pt  Pt79  1  0.69818344  0.54586449  0.54658266  1
  Pt  Pt80  1  0.37061147  0.68388769  0.50115831  1
  Pt  Pt81  1  0.62991971  0.49861289  0.31641810  1
  Pt  Pt82  1  0.36974956  0.50134826  0.68370372  1
  Pt  Pt83  1  0.62948620  0.31620358  0.49897097  1
  Pt  Pt84  1  0.36874080  0.50071270  0.31375422  1
  Pt  Pt85  1  0.63187093  0.49911912  0.68685265  1
  Pt  Pt86  1  0.63252724  0.68617038  0.49983101  1
  Pt  Pt87  1  0.36740861  0.31382474  0.50018264  1
  Pt  Pt88  1  0.63120229  0.40522500  0.31554005  1
  Pt  Pt89  1  0.30315297  0.63938375  0.54852181  1
  Pt  Pt90  1  0.69718908  0.45127494  0.36166995  1
  Pt  Pt91  1  0.36844449  0.59505294  0.68494175  1
  Pt  Pt92  1  0.36883480  0.68535152  0.59465295  1
  Pt  Pt93  1  0.69689486  0.36091485  0.45173108  1
  Pt  Pt94  1  0.30284886  0.54917663  0.63867771  1
  Pt  Pt95  1  0.63106199  0.31487289  0.40539167  1
  Pt  Pt96  1  0.56466957  0.54555173  0.26769007  1
  Pt  Pt97  1  0.43356352  0.45305917  0.73232021  1
  Pt  Pt98  1  0.36943210  0.68606675  0.40749531  1
  Pt  Pt99  1  0.63053955  0.31413958  0.59273635  1
  Pt  Pt100  1  0.43572903  0.73254233  0.45418843  1
  Pt  Pt101  1  0.63120818  0.59221328  0.31438959  1
  Pt  Pt102  1  0.36918863  0.40780551  0.68665467  1
  Pt  Pt103  1  0.56436719  0.26767955  0.54611740  1
  Pt  Pt104  1  0.43465510  0.54724718  0.73164032  1
  Pt  Pt105  1  0.56482705  0.45248067  0.26792206  1
  Pt  Pt106  1  0.30335579  0.63954102  0.45436236  1
  Pt  Pt107  1  0.69665078  0.36042658  0.54573312  1
  Pt  Pt108  1  0.30299456  0.45491717  0.63898338  1
  Pt  Pt109  1  0.43537498  0.73229572  0.54755921  1
  Pt  Pt110  1  0.69732377  0.54519872  0.36097144  1
  Pt  Pt111  1  0.56473821  0.26798370  0.45264909  1
  Pt  Pt112  1  0.43570275  0.54543491  0.26666077  1
  Au  Au113  1  0.63527692  0.40306342  0.68855984  1
  Au  Au114  1  0.36536441  0.59752231  0.31116185  1
  Au  Au115  1  0.56474193  0.45314800  0.73872512  1
  Au  Au116  1  0.63631142  0.68784241  0.40321107  1
  Au  Au117  1  0.43386637  0.26189762  0.54645254  1
  Au  Au118  1  0.56650603  0.73840219  0.45334086  1
  Au  Au119  1  0.36370580  0.31213646  0.59660521  1
  Au  Au120  1  0.43512978  0.45207056  0.26130334  1
  Au  Au121  1  0.29859359  0.55205486  0.35770319  1
  Au  Au122  1  0.56475687  0.54639165  0.73933627  1
  Au  Au123  1  0.70205631  0.44830853  0.64195766  1
  Au  Au124  1  0.43449168  0.26071964  0.45312818  1
  Au  Au125  1  0.29715457  0.35908307  0.55073696  1
  Au  Au126  1  0.70268506  0.64093547  0.44925128  1
  Au  Au127  1  0.56567149  0.73932274  0.54676224  1
  Au  Au128  1  0.29854506  0.45249735  0.35793223  1
  Au  Au129  1  0.36518159  0.40445624  0.31076790  1
  Au  Au130  1  0.63528104  0.59541355  0.68973438  1
  Au  Au131  1  0.70197646  0.54737603  0.64186127  1
  Au  Au132  1  0.63558160  0.68934296  0.59615558  1
  Au  Au133  1  0.70192710  0.64106931  0.54848583  1
  Au  Au134  1  0.29768052  0.35881002  0.45164529  1
  Au  Au135  1  0.36450035  0.31084100  0.40401364  1
  Au  Au136  1  0.49943989  0.30975087  0.69022852  1
  Au  Au137  1  0.50122458  0.69061697  0.31034599  1
  Au  Au138  1  0.76959083  0.49967546  0.50074038  1
  Au  Au139  1  0.49791514  0.30923000  0.30940506  1
  Au  Au140  1  0.50250472  0.69056752  0.69079980  1
  Au  Au141  1  0.23054572  0.50044364  0.49895595  1
  Au  Au142  1  0.29917394  0.64307223  0.64240409  1
  Au  Au143  1  0.70074088  0.35722130  0.35791261  1
  Au  Au144  1  0.56481387  0.64182312  0.26323479  1
  Au  Au145  1  0.43388764  0.35706994  0.73636507  1
  Au  Au146  1  0.43538247  0.73656856  0.35703215  1
  Au  Au147  1  0.56463661  0.26343550  0.64317895  1
  Au  Au148  1  0.56563385  0.35561582  0.73741064  1
  Au  Au149  1  0.43499663  0.64444491  0.26358275  1
  Au  Au150  1  0.43312233  0.26271641  0.64388670  1
  Au  Au151  1  0.56731716  0.73763598  0.35617680  1
  Au  Au152  1  0.56584490  0.35466865  0.26439431  1
  Au  Au153  1  0.23134216  0.59387733  0.50138692  1
  Au  Au154  1  0.43404893  0.64534873  0.73575342  1
  Au  Au155  1  0.76904628  0.40625708  0.49848843  1
  Au  Au156  1  0.43453016  0.73602177  0.64544739  1
  Au  Au157  1  0.76913245  0.49759495  0.40719717  1
  Au  Au158  1  0.23131795  0.50288997  0.59296459  1
  Au  Au159  1  0.56571998  0.26405484  0.35470242  1
  Au  Au160  1  0.50329432  0.49934906  0.21511309  1
  Au  Au161  1  0.29881243  0.64771149  0.36166209  1
  Au  Au162  1  0.49364004  0.49995362  0.78520388  1
  Au  Au163  1  0.70152745  0.35235554  0.63826561  1
  Au  Au164  1  0.70214298  0.63781996  0.35269898  1
  Au  Au165  1  0.49561602  0.78568529  0.50049076  1
  Au  Au166  1  0.29851320  0.36273219  0.64717376  1
  Au  Au167  1  0.50462963  0.21432775  0.49951576  1
  Au  Au168  1  0.56608161  0.64280068  0.73942321  1
  Au  Au169  1  0.43450744  0.35612501  0.26046321  1
  Au  Au170  1  0.77054197  0.49685679  0.59355304  1
  Au  Au171  1  0.23026217  0.50295413  0.40536597  1
  Au  Au172  1  0.77082792  0.59247736  0.49739257  1
  Au  Au173  1  0.43381278  0.26079252  0.35653964  1
  Au  Au174  1  0.56645055  0.73938783  0.64351993  1
  Au  Au175  1  0.22923208  0.40766068  0.50257007  1
  Au  Au176  1  0.29735072  0.35768931  0.35696872  1
  Au  Au177  1  0.70272663  0.64220830  0.64303356  1
  Au  Au178  1  0.36638480  0.68782185  0.68754216  1
  Au  Au179  1  0.23517044  0.59599711  0.59459320  1
  Au  Au180  1  0.76488405  0.40438781  0.40540900  1
  Au  Au181  1  0.63360364  0.31241813  0.31251908  1
  Au  Au182  1  0.49923881  0.59219115  0.21898961  1
  Au  Au183  1  0.36818295  0.69002576  0.31420787  1
  Au  Au184  1  0.49762040  0.40578283  0.78144994  1
  Au  Au185  1  0.63163508  0.31055797  0.68586171  1
  Au  Au186  1  0.63210986  0.68526141  0.31036097  1
  Au  Au187  1  0.49928921  0.78128440  0.40616857  1
  Au  Au188  1  0.36750245  0.31427776  0.68925051  1
  Au  Au189  1  0.50084183  0.21876536  0.59383515  1
  Au  Au190  1  0.23452775  0.59736838  0.40887432  1
  Au  Au191  1  0.49662495  0.59449101  0.78153639  1
  Au  Au192  1  0.50351443  0.40494714  0.21782029  1
  Au  Au193  1  0.76567483  0.40262344  0.59097996  1
  Au  Au194  1  0.49747921  0.78179263  0.59480875  1
  Au  Au195  1  0.76643927  0.59013057  0.40310421  1
  Au  Au196  1  0.23366391  0.41018914  0.59690327  1
  Au  Au197  1  0.50292069  0.21822784  0.40511903  1
  Au  Au198  1  0.63053421  0.68886124  0.68939281  1
  Au  Au199  1  0.76745012  0.59036614  0.59098749  1
  Au  Au200  1  0.23252771  0.40931485  0.40836451  1
  Au  Au201  1  0.36954879  0.31122684  0.31080087  1
  Au  Au202  1  0.69820874  0.45024031  0.26782592  1
  Au  Au203  1  0.69746559  0.26688411  0.45093046  1
  Au  Au204  1  0.30222549  0.54900900  0.73266329  1
  Au  Au205  1  0.30239786  0.73323787  0.54909978  1
  Au  Au206  1  0.37059160  0.50058179  0.78082066  1
  Au  Au207  1  0.69776881  0.26671078  0.54791702  1
  Au  Au208  1  0.63005717  0.49888683  0.21914398  1
  Au  Au209  1  0.30221957  0.73328834  0.45229165  1
  Au  Au210  1  0.30166771  0.45182752  0.73214353  1
  Au  Au211  1  0.62960895  0.21898547  0.49929325  1
  Au  Au212  1  0.69832938  0.54681112  0.26724974  1
  Au  Au213  1  0.37035668  0.78105959  0.50082752  1
  Au  Au214  1  0.70083586  0.45187099  0.73684603  1
  Au  Au215  1  0.63405756  0.49925014  0.78412993  1
  Au  Au216  1  0.36923140  0.49922210  0.21594089  1
  Au  Au217  1  0.30207100  0.54770661  0.26275537  1
  Au  Au218  1  0.36470674  0.21688705  0.49954988  1
  Au  Au219  1  0.29826938  0.26468906  0.54686804  1
  Au  Au220  1  0.70184280  0.73528130  0.45292023  1
  Au  Au221  1  0.63521841  0.78349924  0.49983997  1
  Au  Au222  1  0.29965517  0.45351154  0.26231019  1
  Au  Au223  1  0.70122445  0.54632625  0.73694450  1
  Au  Au224  1  0.29761849  0.26389814  0.45243550  1
  Au  Au225  1  0.70196540  0.73617513  0.54715440  1
  Au  Au226  1  0.36784394  0.40640288  0.78106321  1
  Au  Au227  1  0.62980354  0.22152181  0.59215815  1
  Au  Au228  1  0.63083371  0.59151226  0.22201277  1
  Au  Au229  1  0.37022390  0.77852160  0.40797264  1
  Au  Au230  1  0.36977991  0.59379538  0.77792560  1
  Au  Au231  1  0.76101668  0.31405794  0.49892178  1
  Au  Au232  1  0.63041535  0.40609699  0.22282943  1
  Au  Au233  1  0.23890194  0.68599332  0.50107937  1
  Au  Au234  1  0.62961108  0.22186914  0.40635251  1
  Au  Au235  1  0.23831902  0.50142266  0.68541635  1
  Au  Au236  1  0.76185015  0.49836114  0.31479958  1
  Au  Au237  1  0.37035608  0.77817431  0.59378851  1
  Au  Au238  1  0.63216428  0.40555516  0.78107093  1
  Au  Au239  1  0.37427248  0.59107379  0.21786474  1
  Au  Au240  1  0.36626967  0.21953816  0.59354993  1
  Au  Au241  1  0.63487025  0.78047934  0.40580382  1
  Au  Au242  1  0.63348647  0.59269036  0.78230009  1
  Au  Au243  1  0.76559217  0.49870410  0.68804999  1
  Au  Au244  1  0.36598244  0.40509302  0.21832146  1
  Au  Au245  1  0.23597872  0.50181513  0.31098531  1
  Au  Au246  1  0.36551385  0.21858186  0.40582476  1
  Au  Au247  1  0.23330405  0.31365608  0.49987409  1
  Au  Au248  1  0.76646709  0.68620091  0.50036498  1
  Au  Au249  1  0.63419388  0.78195425  0.59331867  1
