# generated using pymatgen
data_HPt112Au137
_symmetry_space_group_name_H-M   'P 1'
_cell_length_a   30.00000000
_cell_length_b   30.00000000
_cell_length_c   30.00000000
_cell_angle_alpha   90.00000000
_cell_angle_beta   90.00000000
_cell_angle_gamma   90.00000000
_symmetry_Int_Tables_number   1
_chemical_formula_structural   HPt112Au137
_chemical_formula_sum   'H1 Pt112 Au137'
_cell_volume   27000.00000000
_cell_formula_units_Z   1
loop_
 _symmetry_equiv_pos_site_id
 _symmetry_equiv_pos_as_xyz
  1  'x, y, z'
loop_
 _atom_site_type_symbol
 _atom_site_label
 _atom_site_symmetry_multiplicity
 _atom_site_fract_x
 _atom_site_fract_y
 _atom_site_fract_z
 _atom_site_occupancy
  H  H0  1  0.34378502  0.83134379  0.49825831  1
  Pt  Pt1  1  0.50003880  0.50014314  0.50037780  1
  Pt  Pt2  1  0.43550680  0.54605539  0.54572132  1
  Pt  Pt3  1  0.56420951  0.45410898  0.45435618  1
  Pt  Pt4  1  0.43463547  0.54582459  0.45367577  1
  Pt  Pt5  1  0.49908081  0.49977144  0.40808428  1
  Pt  Pt6  1  0.50087800  0.50055353  0.59256506  1
  Pt  Pt7  1  0.56531510  0.45426829  0.54685227  1
  Pt  Pt8  1  0.50118568  0.59272678  0.50074439  1
  Pt  Pt9  1  0.56579492  0.54664524  0.45478677  1
  Pt  Pt10  1  0.43428857  0.45345780  0.54560407  1
  Pt  Pt11  1  0.49869926  0.40743091  0.49978662  1
  Pt  Pt12  1  0.43304921  0.45291026  0.45310743  1
  Pt  Pt13  1  0.56706204  0.54711705  0.54732513  1
  Pt  Pt14  1  0.50031084  0.59349533  0.40770326  1
  Pt  Pt15  1  0.49978386  0.40690041  0.59304173  1
  Pt  Pt16  1  0.50219287  0.59377007  0.59366077  1
  Pt  Pt17  1  0.36755917  0.49892437  0.49889811  1
  Pt  Pt18  1  0.63225825  0.50056087  0.50118222  1
  Pt  Pt19  1  0.49780690  0.40624380  0.40660568  1
  Pt  Pt20  1  0.56481458  0.54631668  0.36210804  1
  Pt  Pt21  1  0.56428035  0.36143600  0.54623211  1
  Pt  Pt22  1  0.43500020  0.45387075  0.63816903  1
  Pt  Pt23  1  0.43533319  0.63884524  0.45424628  1
  Pt  Pt24  1  0.43573413  0.54746579  0.63800199  1
  Pt  Pt25  1  0.63041810  0.40852343  0.49968805  1
  Pt  Pt26  1  0.56376793  0.45287409  0.36194527  1
  Pt  Pt27  1  0.36967194  0.59157991  0.50049474  1
  Pt  Pt28  1  0.56378810  0.36171311  0.45278488  1
  Pt  Pt29  1  0.36917902  0.50054685  0.59111759  1
  Pt  Pt30  1  0.63069034  0.49933770  0.40888978  1
  Pt  Pt31  1  0.43580480  0.63875392  0.54729286  1
  Pt  Pt32  1  0.43376298  0.54681377  0.36086433  1
  Pt  Pt33  1  0.56618858  0.45337931  0.64023807  1
  Pt  Pt34  1  0.56693954  0.64008347  0.45377450  1
  Pt  Pt35  1  0.43321152  0.35991035  0.54655548  1
  Pt  Pt36  1  0.56694079  0.54630576  0.64110405  1
  Pt  Pt37  1  0.63251536  0.49934068  0.59453097  1
  Pt  Pt38  1  0.43319429  0.45343508  0.35964308  1
  Pt  Pt39  1  0.36745797  0.50033863  0.40590482  1
  Pt  Pt40  1  0.36697039  0.40592234  0.50036339  1
  Pt  Pt41  1  0.56742945  0.64088107  0.54677675  1
  Pt  Pt42  1  0.43268120  0.35912546  0.45359689  1
  Pt  Pt43  1  0.63294061  0.59381172  0.49989721  1
  Pt  Pt44  1  0.63083917  0.40685994  0.40727525  1
  Pt  Pt45  1  0.36919280  0.59346445  0.59308205  1
  Pt  Pt46  1  0.50012300  0.50032854  0.68625275  1
  Pt  Pt47  1  0.63140984  0.40649380  0.59295247  1
  Pt  Pt48  1  0.49940736  0.49993640  0.31421075  1
  Pt  Pt49  1  0.36866097  0.59358539  0.40724607  1
  Pt  Pt50  1  0.36765449  0.40724215  0.59306999  1
  Pt  Pt51  1  0.49914544  0.31347320  0.49965391  1
  Pt  Pt52  1  0.63211194  0.59251685  0.40690073  1
  Pt  Pt53  1  0.50092712  0.68662567  0.50056638  1
  Pt  Pt54  1  0.63313658  0.59346845  0.59400890  1
  Pt  Pt55  1  0.36684452  0.40632799  0.40623130  1
  Pt  Pt56  1  0.56495651  0.36028784  0.64018239  1
  Pt  Pt57  1  0.49945065  0.59379162  0.31436642  1
  Pt  Pt58  1  0.50046653  0.40645007  0.68622032  1
  Pt  Pt59  1  0.43528323  0.64035230  0.36033907  1
  Pt  Pt60  1  0.49864578  0.31358217  0.59360337  1
  Pt  Pt61  1  0.43422495  0.35983303  0.63948259  1
  Pt  Pt62  1  0.56581396  0.64012756  0.36065916  1
  Pt  Pt63  1  0.50166776  0.68637329  0.40672114  1
  Pt  Pt64  1  0.56398228  0.35932632  0.35961618  1
  Pt  Pt65  1  0.69850988  0.45351159  0.45424146  1
  Pt  Pt66  1  0.30192740  0.54674429  0.54560562  1
  Pt  Pt67  1  0.43609117  0.64089970  0.64070349  1
  Pt  Pt68  1  0.69826507  0.45322828  0.54686544  1
  Pt  Pt69  1  0.50131787  0.59419091  0.68677844  1
  Pt  Pt70  1  0.49896717  0.40563356  0.31338161  1
  Pt  Pt71  1  0.30182604  0.54682324  0.45316506  1
  Pt  Pt72  1  0.30120546  0.45387235  0.54612042  1
  Pt  Pt73  1  0.49840898  0.31307288  0.40568440  1
  Pt  Pt74  1  0.69868868  0.54603270  0.45397317  1
  Pt  Pt75  1  0.50186992  0.68662148  0.59428356  1
  Pt  Pt76  1  0.30176982  0.45394904  0.45328682  1
  Pt  Pt77  1  0.43310090  0.35976381  0.35975451  1
  Pt  Pt78  1  0.56709982  0.63998782  0.64055720  1
  Pt  Pt79  1  0.69813145  0.54589045  0.54669608  1
  Pt  Pt80  1  0.37036515  0.68546458  0.50098554  1
  Pt  Pt81  1  0.62980529  0.49852824  0.31647934  1
  Pt  Pt82  1  0.37010554  0.50130969  0.68341012  1
  Pt  Pt83  1  0.62933985  0.31623338  0.49899323  1
  Pt  Pt84  1  0.36883559  0.50069800  0.31365672  1
  Pt  Pt85  1  0.63192954  0.49918340  0.68682863  1
  Pt  Pt86  1  0.63262888  0.68606053  0.49982237  1
  Pt  Pt87  1  0.36712994  0.31414218  0.50037862  1
  Pt  Pt88  1  0.63116187  0.40519284  0.31543170  1
  Pt  Pt89  1  0.30323760  0.63921926  0.54816717  1
  Pt  Pt90  1  0.69715013  0.45116008  0.36159747  1
  Pt  Pt91  1  0.36869451  0.59510321  0.68485011  1
  Pt  Pt92  1  0.36886835  0.68515452  0.59483854  1
  Pt  Pt93  1  0.69694279  0.36081065  0.45176584  1
  Pt  Pt94  1  0.30296880  0.54901461  0.63848362  1
  Pt  Pt95  1  0.63106348  0.31484304  0.40536309  1
  Pt  Pt96  1  0.56457770  0.54541559  0.26780289  1
  Pt  Pt97  1  0.43481581  0.45405284  0.73208530  1
  Pt  Pt98  1  0.36966271  0.68596814  0.40716754  1
  Pt  Pt99  1  0.63058267  0.31399442  0.59275103  1
  Pt  Pt100  1  0.43555136  0.73246379  0.45454397  1
  Pt  Pt101  1  0.63110484  0.59227574  0.31447361  1
  Pt  Pt102  1  0.36859864  0.40739146  0.68534026  1
  Pt  Pt103  1  0.56439274  0.26751596  0.54603767  1
  Pt  Pt104  1  0.43468508  0.54783367  0.73177093  1
  Pt  Pt105  1  0.56476929  0.45225474  0.26796343  1
  Pt  Pt106  1  0.30362044  0.63948097  0.45458824  1
  Pt  Pt107  1  0.69662509  0.36036425  0.54572999  1
  Pt  Pt108  1  0.30266738  0.45478312  0.63903127  1
  Pt  Pt109  1  0.43485635  0.73232257  0.54694726  1
  Pt  Pt110  1  0.69721264  0.54527047  0.36098495  1
  Pt  Pt111  1  0.56478337  0.26792547  0.45252689  1
  Pt  Pt112  1  0.43580623  0.54555565  0.26681842  1
  Au  Au113  1  0.63528255  0.40300046  0.68853233  1
  Au  Au114  1  0.36560053  0.59768030  0.31160277  1
  Au  Au115  1  0.56500882  0.45309255  0.73817412  1
  Au  Au116  1  0.63636974  0.68785285  0.40316161  1
  Au  Au117  1  0.43394142  0.26185834  0.54645015  1
  Au  Au118  1  0.56644541  0.73816572  0.45354619  1
  Au  Au119  1  0.36355908  0.31227326  0.59674083  1
  Au  Au120  1  0.43522879  0.45224219  0.26151000  1
  Au  Au121  1  0.29864487  0.55221745  0.35785463  1
  Au  Au122  1  0.56474379  0.54643557  0.73938039  1
  Au  Au123  1  0.70199833  0.44827923  0.64200481  1
  Au  Au124  1  0.43452812  0.26115812  0.45291061  1
  Au  Au125  1  0.29677580  0.35871285  0.55102172  1
  Au  Au126  1  0.70263190  0.64089962  0.44913390  1
  Au  Au127  1  0.56592751  0.73911477  0.54688049  1
  Au  Au128  1  0.29871002  0.45292978  0.35800791  1
  Au  Au129  1  0.36488373  0.40430627  0.31051683  1
  Au  Au130  1  0.63511358  0.59540158  0.68972107  1
  Au  Au131  1  0.70172528  0.54749620  0.64189151  1
  Au  Au132  1  0.63558053  0.68921783  0.59611516  1
  Au  Au133  1  0.70214319  0.64115014  0.54839446  1
  Au  Au134  1  0.29754829  0.35878962  0.45152928  1
  Au  Au135  1  0.36443604  0.31095111  0.40404261  1
  Au  Au136  1  0.49947240  0.30977649  0.69023765  1
  Au  Au137  1  0.50100851  0.69103276  0.31035019  1
  Au  Au138  1  0.76941016  0.49953544  0.50102654  1
  Au  Au139  1  0.49785175  0.30922623  0.30928493  1
  Au  Au140  1  0.50246562  0.69074079  0.69070881  1
  Au  Au141  1  0.23061840  0.50032329  0.49882388  1
  Au  Au142  1  0.29922784  0.64287618  0.64218530  1
  Au  Au143  1  0.70071507  0.35719026  0.35790784  1
  Au  Au144  1  0.56469609  0.64185619  0.26330212  1
  Au  Au145  1  0.43398256  0.35710625  0.73637496  1
  Au  Au146  1  0.43506471  0.73700507  0.35680502  1
  Au  Au147  1  0.56468613  0.26336438  0.64320592  1
  Au  Au148  1  0.56580608  0.35546709  0.73743046  1
  Au  Au149  1  0.43498493  0.64454290  0.26362609  1
  Au  Au150  1  0.43315295  0.26267190  0.64402973  1
  Au  Au151  1  0.56730188  0.73764602  0.35619834  1
  Au  Au152  1  0.56587843  0.35428284  0.26402288  1
  Au  Au153  1  0.23087540  0.59361884  0.50140229  1
  Au  Au154  1  0.43423174  0.64570088  0.73590232  1
  Au  Au155  1  0.76888756  0.40615218  0.49857802  1
  Au  Au156  1  0.43427446  0.73595976  0.64532635  1
  Au  Au157  1  0.76906193  0.49757792  0.40717838  1
  Au  Au158  1  0.23162695  0.50265765  0.59253012  1
  Au  Au159  1  0.56567382  0.26401224  0.35448482  1
  Au  Au160  1  0.50328887  0.49931070  0.21524967  1
  Au  Au161  1  0.29884930  0.64793135  0.36174731  1
  Au  Au162  1  0.49416219  0.50045451  0.78569167  1
  Au  Au163  1  0.70146782  0.35229154  0.63823144  1
  Au  Au164  1  0.70217673  0.63781926  0.35269792  1
  Au  Au165  1  0.49565577  0.78549645  0.50046480  1
  Au  Au166  1  0.29720681  0.36213416  0.64733722  1
  Au  Au167  1  0.50449148  0.21438965  0.49934594  1
  Au  Au168  1  0.56602540  0.64306423  0.73968881  1
  Au  Au169  1  0.43408132  0.35611952  0.26053678  1
  Au  Au170  1  0.77022503  0.49694996  0.59408603  1
  Au  Au171  1  0.23019117  0.50343541  0.40546472  1
  Au  Au172  1  0.77080451  0.59235902  0.49745689  1
  Au  Au173  1  0.43383455  0.26059872  0.35613604  1
  Au  Au174  1  0.56643502  0.73933981  0.64354199  1
  Au  Au175  1  0.22918177  0.40734626  0.50232590  1
  Au  Au176  1  0.29722029  0.35795547  0.35706038  1
  Au  Au177  1  0.70259349  0.64221535  0.64301456  1
  Au  Au178  1  0.36623205  0.68771497  0.68759034  1
  Au  Au179  1  0.23516273  0.59571926  0.59442945  1
  Au  Au180  1  0.76489971  0.40435130  0.40544970  1
  Au  Au181  1  0.63363269  0.31241651  0.31248816  1
  Au  Au182  1  0.49926576  0.59223965  0.21906261  1
  Au  Au183  1  0.36813287  0.69010517  0.31400689  1
  Au  Au184  1  0.49820928  0.40615717  0.78125745  1
  Au  Au185  1  0.63163040  0.31050800  0.68589456  1
  Au  Au186  1  0.63203898  0.68531422  0.31029063  1
  Au  Au187  1  0.49906263  0.78098571  0.40619696  1
  Au  Au188  1  0.36734108  0.31424522  0.68928569  1
  Au  Au189  1  0.50087167  0.21873834  0.59382770  1
  Au  Au190  1  0.23451481  0.59761949  0.40887824  1
  Au  Au191  1  0.49665342  0.59470547  0.78174105  1
  Au  Au192  1  0.50322148  0.40472857  0.21808296  1
  Au  Au193  1  0.76563652  0.40264543  0.59100294  1
  Au  Au194  1  0.49716314  0.78112053  0.59458939  1
  Au  Au195  1  0.76639899  0.59007932  0.40319491  1
  Au  Au196  1  0.23347038  0.41005626  0.59669407  1
  Au  Au197  1  0.50282056  0.21828167  0.40501302  1
  Au  Au198  1  0.63049294  0.68884180  0.68939881  1
  Au  Au199  1  0.76741667  0.59048911  0.59123670  1
  Au  Au200  1  0.23264200  0.40981927  0.40812690  1
  Au  Au201  1  0.36935754  0.31105450  0.31079301  1
  Au  Au202  1  0.69817517  0.45008302  0.26776118  1
  Au  Au203  1  0.69749184  0.26684297  0.45095473  1
  Au  Au204  1  0.30220407  0.54934717  0.73245007  1
  Au  Au205  1  0.30193735  0.73255410  0.54929288  1
  Au  Au206  1  0.37016684  0.50116282  0.78095188  1
  Au  Au207  1  0.69773642  0.26668648  0.54785807  1
  Au  Au208  1  0.62985208  0.49872138  0.21915110  1
  Au  Au209  1  0.30175676  0.73251916  0.45150276  1
  Au  Au210  1  0.30162917  0.45290893  0.73261208  1
  Au  Au211  1  0.62966855  0.21890142  0.49923604  1
  Au  Au212  1  0.69807298  0.54658695  0.26732515  1
  Au  Au213  1  0.36796727  0.78413549  0.50067132  1
  Au  Au214  1  0.70078449  0.45181693  0.73694034  1
  Au  Au215  1  0.63391616  0.49916862  0.78415174  1
  Au  Au216  1  0.36930014  0.49935006  0.21589643  1
  Au  Au217  1  0.30219680  0.54782301  0.26281338  1
  Au  Au218  1  0.36463684  0.21745515  0.49974015  1
  Au  Au219  1  0.29801181  0.26435804  0.54712497  1
  Au  Au220  1  0.70181357  0.73528117  0.45300015  1
  Au  Au221  1  0.63554093  0.78348241  0.50007256  1
  Au  Au222  1  0.29970418  0.45358463  0.26232131  1
  Au  Au223  1  0.70109650  0.54630221  0.73708795  1
  Au  Au224  1  0.29761344  0.26386194  0.45247910  1
  Au  Au225  1  0.70225325  0.73610360  0.54735527  1
  Au  Au226  1  0.36902618  0.40848504  0.77804819  1
  Au  Au227  1  0.62989137  0.22147444  0.59208405  1
  Au  Au228  1  0.63058228  0.59138269  0.22210752  1
  Au  Au229  1  0.37047307  0.77819093  0.40816738  1
  Au  Au230  1  0.36953313  0.59414495  0.77771101  1
  Au  Au231  1  0.76109894  0.31404198  0.49890876  1
  Au  Au232  1  0.63047104  0.40599026  0.22267013  1
  Au  Au233  1  0.23863311  0.68576223  0.50102292  1
  Au  Au234  1  0.62963299  0.22191556  0.40623661  1
  Au  Au235  1  0.23824254  0.50172143  0.68519256  1
  Au  Au236  1  0.76175456  0.49833449  0.31477044  1
  Au  Au237  1  0.37011092  0.77747583  0.59359527  1
  Au  Au238  1  0.63213412  0.40551335  0.78111903  1
  Au  Au239  1  0.37408607  0.59109540  0.21825402  1
  Au  Au240  1  0.36631914  0.21974224  0.59388179  1
  Au  Au241  1  0.63419261  0.78056801  0.40630555  1
  Au  Au242  1  0.63349524  0.59268028  0.78232101  1
  Au  Au243  1  0.76544293  0.49876400  0.68821097  1
  Au  Au244  1  0.36654685  0.40590445  0.21789135  1
  Au  Au245  1  0.23597502  0.50215972  0.31108016  1
  Au  Au246  1  0.36595202  0.21885606  0.40592668  1
  Au  Au247  1  0.23330195  0.31340226  0.49975062  1
  Au  Au248  1  0.76655287  0.68616259  0.49987394  1
  Au  Au249  1  0.63439128  0.78167710  0.59364118  1
