# generated using pymatgen
data_HPt112Au137
_symmetry_space_group_name_H-M   'P 1'
_cell_length_a   30.00000000
_cell_length_b   30.00000000
_cell_length_c   30.00000000
_cell_angle_alpha   90.00000000
_cell_angle_beta   90.00000000
_cell_angle_gamma   90.00000000
_symmetry_Int_Tables_number   1
_chemical_formula_structural   HPt112Au137
_chemical_formula_sum   'H1 Pt112 Au137'
_cell_volume   27000.00000000
_cell_formula_units_Z   1
loop_
 _symmetry_equiv_pos_site_id
 _symmetry_equiv_pos_as_xyz
  1  'x, y, z'
loop_
 _atom_site_type_symbol
 _atom_site_label
 _atom_site_symmetry_multiplicity
 _atom_site_fract_x
 _atom_site_fract_y
 _atom_site_fract_z
 _atom_site_occupancy
  H  H0  1  0.26056369  0.33202053  0.67074409  1
  Pt  Pt1  1  0.50034274  0.50017342  0.50024718  1
  Pt  Pt2  1  0.43515259  0.54549392  0.54563034  1
  Pt  Pt3  1  0.56425791  0.45393423  0.45443914  1
  Pt  Pt4  1  0.43484692  0.54585137  0.45342010  1
  Pt  Pt5  1  0.49922708  0.49970591  0.40800321  1
  Pt  Pt6  1  0.50049106  0.49988737  0.59253245  1
  Pt  Pt7  1  0.56557476  0.45423371  0.54684632  1
  Pt  Pt8  1  0.50115336  0.59236253  0.50071450  1
  Pt  Pt9  1  0.56618512  0.54668462  0.45452957  1
  Pt  Pt10  1  0.43357915  0.45308444  0.54596377  1
  Pt  Pt11  1  0.49866510  0.40766672  0.50022423  1
  Pt  Pt12  1  0.43303438  0.45318807  0.45357021  1
  Pt  Pt13  1  0.56688119  0.54672678  0.54733771  1
  Pt  Pt14  1  0.50076555  0.59346812  0.40730130  1
  Pt  Pt15  1  0.49953360  0.40665408  0.59341195  1
  Pt  Pt16  1  0.50192292  0.59327880  0.59373756  1
  Pt  Pt17  1  0.36728770  0.49944368  0.49890516  1
  Pt  Pt18  1  0.63239851  0.50070407  0.50107026  1
  Pt  Pt19  1  0.49786344  0.40646843  0.40683027  1
  Pt  Pt20  1  0.56506629  0.54617082  0.36173697  1
  Pt  Pt21  1  0.56435280  0.36155413  0.54649711  1
  Pt  Pt22  1  0.43446391  0.45346693  0.63815053  1
  Pt  Pt23  1  0.43581126  0.63852088  0.45382884  1
  Pt  Pt24  1  0.43560260  0.54747442  0.63804496  1
  Pt  Pt25  1  0.63050878  0.40856524  0.49971790  1
  Pt  Pt26  1  0.56384152  0.45279461  0.36181880  1
  Pt  Pt27  1  0.36951778  0.59154111  0.50036985  1
  Pt  Pt28  1  0.56378076  0.36171815  0.45297204  1
  Pt  Pt29  1  0.36893060  0.50036818  0.59110486  1
  Pt  Pt30  1  0.63084723  0.49902742  0.40873529  1
  Pt  Pt31  1  0.43611123  0.63819765  0.54746981  1
  Pt  Pt32  1  0.43380929  0.54698357  0.36070348  1
  Pt  Pt33  1  0.56618155  0.45320436  0.64023426  1
  Pt  Pt34  1  0.56699826  0.64022344  0.45372367  1
  Pt  Pt35  1  0.43284427  0.36019033  0.54681741  1
  Pt  Pt36  1  0.56687602  0.54607868  0.64101975  1
  Pt  Pt37  1  0.63258845  0.49923932  0.59434347  1
  Pt  Pt38  1  0.43324782  0.45382509  0.35985449  1
  Pt  Pt39  1  0.36744746  0.50063139  0.40603267  1
  Pt  Pt40  1  0.36692218  0.40627618  0.50062472  1
  Pt  Pt41  1  0.56727548  0.64050858  0.54663927  1
  Pt  Pt42  1  0.43268237  0.35950534  0.45380518  1
  Pt  Pt43  1  0.63303340  0.59386988  0.50008491  1
  Pt  Pt44  1  0.63084569  0.40671333  0.40723375  1
  Pt  Pt45  1  0.36923731  0.59346380  0.59309016  1
  Pt  Pt46  1  0.50008461  0.50027363  0.68615079  1
  Pt  Pt47  1  0.63152430  0.40643604  0.59310223  1
  Pt  Pt48  1  0.49942264  0.50006486  0.31406529  1
  Pt  Pt49  1  0.36860333  0.59347924  0.40709297  1
  Pt  Pt50  1  0.36574389  0.40593949  0.59430608  1
  Pt  Pt51  1  0.49910169  0.31382303  0.49983614  1
  Pt  Pt52  1  0.63205096  0.59223323  0.40710422  1
  Pt  Pt53  1  0.50095761  0.68633875  0.50039808  1
  Pt  Pt54  1  0.63311834  0.59327629  0.59402944  1
  Pt  Pt55  1  0.36700560  0.40664536  0.40630639  1
  Pt  Pt56  1  0.56497258  0.36014721  0.64049031  1
  Pt  Pt57  1  0.49950219  0.59371707  0.31403219  1
  Pt  Pt58  1  0.50028944  0.40636499  0.68627295  1
  Pt  Pt59  1  0.43515995  0.64015485  0.36020239  1
  Pt  Pt60  1  0.49849291  0.31365407  0.59375270  1
  Pt  Pt61  1  0.43386384  0.35954640  0.63966404  1
  Pt  Pt62  1  0.56592278  0.64002558  0.36071960  1
  Pt  Pt63  1  0.50165188  0.68660410  0.40659912  1
  Pt  Pt64  1  0.56398394  0.35937477  0.35973269  1
  Pt  Pt65  1  0.69861314  0.45318703  0.45412580  1
  Pt  Pt66  1  0.30154197  0.54679081  0.54587144  1
  Pt  Pt67  1  0.43600156  0.64095694  0.64079856  1
  Pt  Pt68  1  0.69851551  0.45331878  0.54669164  1
  Pt  Pt69  1  0.50128488  0.59427329  0.68677087  1
  Pt  Pt70  1  0.49897469  0.40589784  0.31345044  1
  Pt  Pt71  1  0.30140998  0.54671148  0.45314729  1
  Pt  Pt72  1  0.30092519  0.45419068  0.54589735  1
  Pt  Pt73  1  0.49844580  0.31325213  0.40588701  1
  Pt  Pt74  1  0.69863852  0.54572095  0.45427865  1
  Pt  Pt75  1  0.50160761  0.68660424  0.59430047  1
  Pt  Pt76  1  0.30148991  0.45394342  0.45328842  1
  Pt  Pt77  1  0.43322921  0.36026225  0.35999987  1
  Pt  Pt78  1  0.56690351  0.63983561  0.64033755  1
  Pt  Pt79  1  0.69857146  0.54594189  0.54692921  1
  Pt  Pt80  1  0.37076367  0.68381533  0.50102569  1
  Pt  Pt81  1  0.62992477  0.49848411  0.31641653  1
  Pt  Pt82  1  0.37009160  0.50196137  0.68346925  1
  Pt  Pt83  1  0.62927202  0.31613847  0.49910178  1
  Pt  Pt84  1  0.36885709  0.50074327  0.31381625  1
  Pt  Pt85  1  0.63184243  0.49922089  0.68660966  1
  Pt  Pt86  1  0.63265466  0.68613028  0.49978628  1
  Pt  Pt87  1  0.36759320  0.31379093  0.49990342  1
  Pt  Pt88  1  0.63133245  0.40518073  0.31536043  1
  Pt  Pt89  1  0.30324923  0.63928792  0.54845425  1
  Pt  Pt90  1  0.69735022  0.45086851  0.36141687  1
  Pt  Pt91  1  0.36866312  0.59552180  0.68497201  1
  Pt  Pt92  1  0.36895569  0.68534311  0.59472698  1
  Pt  Pt93  1  0.69685641  0.36066806  0.45177571  1
  Pt  Pt94  1  0.30280462  0.54984346  0.63873586  1
  Pt  Pt95  1  0.63108559  0.31470060  0.40548192  1
  Pt  Pt96  1  0.56474550  0.54544549  0.26750298  1
  Pt  Pt97  1  0.43512820  0.45466754  0.73244665  1
  Pt  Pt98  1  0.36959053  0.68601417  0.40727228  1
  Pt  Pt99  1  0.63048181  0.31396106  0.59287059  1
  Pt  Pt100  1  0.43578157  0.73238826  0.45392140  1
  Pt  Pt101  1  0.63125767  0.59198074  0.31426339  1
  Pt  Pt102  1  0.36866468  0.40799405  0.68588880  1
  Pt  Pt103  1  0.56424252  0.26772372  0.54628939  1
  Pt  Pt104  1  0.43482580  0.54802623  0.73196443  1
  Pt  Pt105  1  0.56495352  0.45245146  0.26790098  1
  Pt  Pt106  1  0.30351623  0.63959036  0.45447812  1
  Pt  Pt107  1  0.69652524  0.36036948  0.54561975  1
  Pt  Pt108  1  0.30267852  0.45558997  0.63904337  1
  Pt  Pt109  1  0.43531577  0.73207035  0.54739520  1
  Pt  Pt110  1  0.69749700  0.54463034  0.36097966  1
  Pt  Pt111  1  0.56477378  0.26790592  0.45271669  1
  Pt  Pt112  1  0.43564475  0.54564409  0.26655757  1
  Au  Au113  1  0.63546060  0.40305009  0.68854808  1
  Au  Au114  1  0.36517755  0.59735604  0.31120055  1
  Au  Au115  1  0.56505436  0.45310042  0.73810188  1
  Au  Au116  1  0.63641712  0.68812026  0.40347796  1
  Au  Au117  1  0.43439225  0.26148693  0.54610452  1
  Au  Au118  1  0.56630291  0.73842360  0.45362292  1
  Au  Au119  1  0.36416023  0.31104861  0.59582537  1
  Au  Au120  1  0.43526798  0.45243851  0.26133614  1
  Au  Au121  1  0.29805157  0.55191151  0.35790208  1
  Au  Au122  1  0.56466532  0.54652272  0.73934335  1
  Au  Au123  1  0.70215962  0.44830353  0.64179020  1
  Au  Au124  1  0.43461423  0.26119444  0.45284421  1
  Au  Au125  1  0.29709473  0.35870303  0.54924290  1
  Au  Au126  1  0.70267909  0.64100097  0.44963710  1
  Au  Au127  1  0.56569740  0.73886341  0.54685437  1
  Au  Au128  1  0.29890095  0.45276556  0.35813466  1
  Au  Au129  1  0.36495719  0.40455259  0.31052269  1
  Au  Au130  1  0.63509018  0.59547968  0.68957185  1
  Au  Au131  1  0.70153064  0.54736425  0.64181545  1
  Au  Au132  1  0.63549903  0.68890519  0.59606683  1
  Au  Au133  1  0.70218033  0.64107942  0.54869928  1
  Au  Au134  1  0.29778538  0.35900490  0.45101074  1
  Au  Au135  1  0.36446336  0.31112566  0.40393820  1
  Au  Au136  1  0.49929990  0.30981929  0.69036724  1
  Au  Au137  1  0.50131874  0.69045195  0.31025312  1
  Au  Au138  1  0.76969812  0.49953135  0.50031957  1
  Au  Au139  1  0.49791977  0.30927845  0.30932075  1
  Au  Au140  1  0.50236195  0.69080721  0.69084317  1
  Au  Au141  1  0.23031255  0.50072271  0.49920617  1
  Au  Au142  1  0.29912415  0.64377042  0.64238056  1
  Au  Au143  1  0.70074278  0.35691797  0.35787519  1
  Au  Au144  1  0.56476887  0.64167542  0.26307725  1
  Au  Au145  1  0.43390706  0.35729739  0.73654955  1
  Au  Au146  1  0.43543879  0.73673189  0.35651816  1
  Au  Au147  1  0.56463664  0.26332603  0.64359859  1
  Au  Au148  1  0.56596025  0.35554058  0.73754140  1
  Au  Au149  1  0.43487509  0.64438254  0.26351100  1
  Au  Au150  1  0.43311764  0.26224694  0.64395407  1
  Au  Au151  1  0.56718570  0.73782109  0.35614755  1
  Au  Au152  1  0.56598836  0.35469080  0.26437981  1
  Au  Au153  1  0.23099221  0.59393407  0.50144448  1
  Au  Au154  1  0.43427521  0.64575696  0.73605169  1
  Au  Au155  1  0.76906514  0.40615496  0.49850940  1
  Au  Au156  1  0.43451174  0.73610718  0.64528690  1
  Au  Au157  1  0.76943223  0.49656249  0.40698588  1
  Au  Au158  1  0.23071216  0.50351462  0.59286744  1
  Au  Au159  1  0.56569097  0.26419200  0.35495024  1
  Au  Au160  1  0.50328711  0.49934171  0.21513230  1
  Au  Au161  1  0.29883629  0.64762584  0.36172769  1
  Au  Au162  1  0.49471017  0.50084214  0.78601130  1
  Au  Au163  1  0.70157661  0.35222340  0.63817765  1
  Au  Au164  1  0.70148480  0.63712635  0.35369993  1
  Au  Au165  1  0.49550930  0.78570269  0.50050018  1
  Au  Au166  1  0.29721575  0.36166480  0.64649071  1
  Au  Au167  1  0.50478482  0.21422587  0.49938827  1
  Au  Au168  1  0.56610433  0.64312720  0.73931329  1
  Au  Au169  1  0.43437464  0.35665439  0.26098389  1
  Au  Au170  1  0.77073141  0.49704574  0.59320356  1
  Au  Au171  1  0.22988615  0.50290703  0.40584650  1
  Au  Au172  1  0.77078769  0.59274394  0.49885420  1
  Au  Au173  1  0.43395658  0.26117918  0.35654320  1
  Au  Au174  1  0.56614252  0.73895549  0.64340793  1
  Au  Au175  1  0.22868470  0.40781365  0.50111614  1
  Au  Au176  1  0.29699990  0.35795030  0.35641263  1
  Au  Au177  1  0.70279207  0.64223709  0.64330642  1
  Au  Au178  1  0.36653422  0.68815112  0.68773281  1
  Au  Au179  1  0.23513847  0.59630419  0.59461220  1
  Au  Au180  1  0.76492981  0.40372721  0.40535674  1
  Au  Au181  1  0.63361248  0.31238471  0.31252758  1
  Au  Au182  1  0.49920732  0.59215061  0.21887207  1
  Au  Au183  1  0.36812568  0.68990889  0.31404512  1
  Au  Au184  1  0.49830466  0.40616064  0.78120177  1
  Au  Au185  1  0.63195215  0.31048667  0.68593029  1
  Au  Au186  1  0.63158446  0.68515318  0.31065388  1
  Au  Au187  1  0.49921033  0.78134027  0.40611695  1
  Au  Au188  1  0.36771670  0.31452923  0.68881402  1
  Au  Au189  1  0.50104313  0.21862430  0.59401176  1
  Au  Au190  1  0.23444791  0.59745803  0.40901090  1
  Au  Au191  1  0.49690350  0.59517391  0.78184105  1
  Au  Au192  1  0.50348278  0.40481269  0.21819665  1
  Au  Au193  1  0.76568363  0.40257777  0.59094504  1
  Au  Au194  1  0.49731812  0.78155508  0.59463230  1
  Au  Au195  1  0.76592926  0.58910154  0.40464953  1
  Au  Au196  1  0.23423861  0.41083355  0.59532112  1
  Au  Au197  1  0.50286096  0.21829789  0.40516579  1
  Au  Au198  1  0.63053659  0.68885414  0.68920226  1
  Au  Au199  1  0.76755998  0.59080995  0.59267303  1
  Au  Au200  1  0.23248891  0.40928439  0.40715396  1
  Au  Au201  1  0.36942800  0.31143189  0.31091147  1
  Au  Au202  1  0.69828195  0.45033689  0.26753627  1
  Au  Au203  1  0.69744672  0.26668144  0.45129083  1
  Au  Au204  1  0.30188325  0.55035129  0.73260789  1
  Au  Au205  1  0.30256891  0.73318453  0.54888127  1
  Au  Au206  1  0.37024937  0.50164206  0.78113572  1
  Au  Au207  1  0.69760570  0.26659465  0.54794653  1
  Au  Au208  1  0.63008707  0.49877145  0.21902705  1
  Au  Au209  1  0.30237631  0.73331363  0.45219129  1
  Au  Au210  1  0.30230959  0.45387004  0.73278061  1
  Au  Au211  1  0.62912045  0.21864896  0.49965851  1
  Au  Au212  1  0.69854885  0.54680119  0.26721374  1
  Au  Au213  1  0.37066419  0.78107576  0.50063330  1
  Au  Au214  1  0.70093893  0.45224237  0.73660811  1
  Au  Au215  1  0.63394167  0.49943401  0.78382136  1
  Au  Au216  1  0.36912375  0.49949688  0.21605316  1
  Au  Au217  1  0.30185775  0.54730702  0.26294660  1
  Au  Au218  1  0.36485833  0.21678377  0.49923709  1
  Au  Au219  1  0.29840308  0.26452083  0.54649331  1
  Au  Au220  1  0.70183310  0.73564358  0.45316768  1
  Au  Au221  1  0.63547076  0.78350640  0.50029816  1
  Au  Au222  1  0.29961044  0.45336430  0.26220424  1
  Au  Au223  1  0.70128204  0.54646074  0.73690616  1
  Au  Au224  1  0.29768323  0.26391220  0.45230374  1
  Au  Au225  1  0.70211314  0.73608152  0.54758542  1
  Au  Au226  1  0.36965546  0.40920376  0.77859848  1
  Au  Au227  1  0.62978346  0.22148889  0.59237375  1
  Au  Au228  1  0.63091952  0.59137501  0.22194517  1
  Au  Au229  1  0.37020509  0.77845813  0.40778157  1
  Au  Au230  1  0.36957394  0.59431671  0.77789620  1
  Au  Au231  1  0.76104831  0.31395785  0.49905172  1
  Au  Au232  1  0.63063605  0.40612013  0.22262080  1
  Au  Au233  1  0.23905008  0.68599990  0.50090951  1
  Au  Au234  1  0.62985879  0.22183553  0.40671594  1
  Au  Au235  1  0.23854635  0.50201811  0.68530058  1
  Au  Au236  1  0.76208021  0.49819146  0.31462000  1
  Au  Au237  1  0.37026030  0.77809047  0.59363346  1
  Au  Au238  1  0.63224844  0.40570925  0.78100592  1
  Au  Au239  1  0.37353904  0.59127237  0.21816583  1
  Au  Au240  1  0.36689821  0.21854134  0.59293603  1
  Au  Au241  1  0.63395666  0.78077257  0.40640400  1
  Au  Au242  1  0.63355879  0.59273923  0.78220441  1
  Au  Au243  1  0.76576665  0.49926283  0.68742416  1
  Au  Au244  1  0.36655724  0.40584999  0.21788031  1
  Au  Au245  1  0.23560969  0.50089611  0.31123125  1
  Au  Au246  1  0.36583402  0.21880977  0.40577125  1
  Au  Au247  1  0.23311771  0.31377400  0.49897992  1
  Au  Au248  1  0.76652246  0.68652354  0.50028199  1
  Au  Au249  1  0.63414800  0.78130129  0.59391533  1
