# generated using pymatgen
data_HPt112Au137
_symmetry_space_group_name_H-M   'P 1'
_cell_length_a   30.00000000
_cell_length_b   30.00000000
_cell_length_c   30.00000000
_cell_angle_alpha   90.00000000
_cell_angle_beta   90.00000000
_cell_angle_gamma   90.00000000
_symmetry_Int_Tables_number   1
_chemical_formula_structural   HPt112Au137
_chemical_formula_sum   'H1 Pt112 Au137'
_cell_volume   27000.00000000
_cell_formula_units_Z   1
loop_
 _symmetry_equiv_pos_site_id
 _symmetry_equiv_pos_as_xyz
  1  'x, y, z'
loop_
 _atom_site_type_symbol
 _atom_site_label
 _atom_site_symmetry_multiplicity
 _atom_site_fract_x
 _atom_site_fract_y
 _atom_site_fract_z
 _atom_site_occupancy
  H  H0  1  0.65756991  0.39507989  0.17386425  1
  Pt  Pt1  1  0.50021384  0.49999098  0.50018971  1
  Pt  Pt2  1  0.43561874  0.54592467  0.54566974  1
  Pt  Pt3  1  0.56451400  0.45414570  0.45432915  1
  Pt  Pt4  1  0.43472324  0.54565339  0.45352141  1
  Pt  Pt5  1  0.49922730  0.49977531  0.40786516  1
  Pt  Pt6  1  0.50080047  0.50050565  0.59252606  1
  Pt  Pt7  1  0.56534168  0.45425745  0.54694537  1
  Pt  Pt8  1  0.50130518  0.59248416  0.50069140  1
  Pt  Pt9  1  0.56580452  0.54658761  0.45472715  1
  Pt  Pt10  1  0.43430203  0.45347665  0.54546367  1
  Pt  Pt11  1  0.49885990  0.40753364  0.49966615  1
  Pt  Pt12  1  0.43309887  0.45294517  0.45297439  1
  Pt  Pt13  1  0.56704482  0.54701335  0.54726647  1
  Pt  Pt14  1  0.50018643  0.59346452  0.40746004  1
  Pt  Pt15  1  0.49968772  0.40695680  0.59308274  1
  Pt  Pt16  1  0.50226127  0.59368236  0.59392975  1
  Pt  Pt17  1  0.36772032  0.49943535  0.49880865  1
  Pt  Pt18  1  0.63237373  0.50054019  0.50125447  1
  Pt  Pt19  1  0.49804052  0.40666533  0.40640746  1
  Pt  Pt20  1  0.56504052  0.54638140  0.36212999  1
  Pt  Pt21  1  0.56424817  0.36134661  0.54627949  1
  Pt  Pt22  1  0.43501170  0.45393830  0.63820918  1
  Pt  Pt23  1  0.43547425  0.63858662  0.45412769  1
  Pt  Pt24  1  0.43566184  0.54761507  0.63802299  1
  Pt  Pt25  1  0.63045478  0.40844506  0.50040343  1
  Pt  Pt26  1  0.56425783  0.45308911  0.36148611  1
  Pt  Pt27  1  0.36949633  0.59145080  0.50056363  1
  Pt  Pt28  1  0.56398545  0.36185915  0.45274738  1
  Pt  Pt29  1  0.36919651  0.50071759  0.59102409  1
  Pt  Pt30  1  0.63074845  0.49952465  0.40879279  1
  Pt  Pt31  1  0.43614563  0.63819869  0.54764147  1
  Pt  Pt32  1  0.43319766  0.54702537  0.36093461  1
  Pt  Pt33  1  0.56602546  0.45346646  0.64034036  1
  Pt  Pt34  1  0.56694528  0.63997421  0.45384262  1
  Pt  Pt35  1  0.43321806  0.36003994  0.54639013  1
  Pt  Pt36  1  0.56703814  0.54627730  0.64112234  1
  Pt  Pt37  1  0.63250625  0.49916892  0.59447497  1
  Pt  Pt38  1  0.43326974  0.45368921  0.35932973  1
  Pt  Pt39  1  0.36725823  0.50041155  0.40581525  1
  Pt  Pt40  1  0.36703951  0.40618168  0.50028298  1
  Pt  Pt41  1  0.56736557  0.64079456  0.54693513  1
  Pt  Pt42  1  0.43273740  0.35937561  0.45349386  1
  Pt  Pt43  1  0.63288899  0.59378220  0.49985915  1
  Pt  Pt44  1  0.63080626  0.40701027  0.40782276  1
  Pt  Pt45  1  0.36904899  0.59349196  0.59312884  1
  Pt  Pt46  1  0.50002711  0.50051024  0.68633066  1
  Pt  Pt47  1  0.63150782  0.40645483  0.59309169  1
  Pt  Pt48  1  0.49921611  0.50026514  0.31440009  1
  Pt  Pt49  1  0.36846924  0.59373573  0.40710989  1
  Pt  Pt50  1  0.36781141  0.40739665  0.59300727  1
  Pt  Pt51  1  0.49915862  0.31371414  0.49957098  1
  Pt  Pt52  1  0.63221622  0.59253932  0.40694212  1
  Pt  Pt53  1  0.50089351  0.68623679  0.50067870  1
  Pt  Pt54  1  0.63317352  0.59340969  0.59391913  1
  Pt  Pt55  1  0.36696030  0.40646504  0.40611950  1
  Pt  Pt56  1  0.56489429  0.36035495  0.64026313  1
  Pt  Pt57  1  0.49965273  0.59360319  0.31433905  1
  Pt  Pt58  1  0.50045644  0.40655286  0.68635133  1
  Pt  Pt59  1  0.43503471  0.64024818  0.36039451  1
  Pt  Pt60  1  0.49867342  0.31365615  0.59348151  1
  Pt  Pt61  1  0.43421552  0.35986624  0.63933963  1
  Pt  Pt62  1  0.56581341  0.64014962  0.36075511  1
  Pt  Pt63  1  0.50156524  0.68641541  0.40697437  1
  Pt  Pt64  1  0.56444944  0.35982762  0.35945690  1
  Pt  Pt65  1  0.69833786  0.45359652  0.45401784  1
  Pt  Pt66  1  0.30156406  0.54647966  0.54575180  1
  Pt  Pt67  1  0.43609492  0.64098045  0.64094503  1
  Pt  Pt68  1  0.69853950  0.45310739  0.54695697  1
  Pt  Pt69  1  0.50117325  0.59437158  0.68694509  1
  Pt  Pt70  1  0.49931747  0.40603908  0.31312891  1
  Pt  Pt71  1  0.30155105  0.54663619  0.45322278  1
  Pt  Pt72  1  0.30121552  0.45388692  0.54609844  1
  Pt  Pt73  1  0.49860074  0.31343335  0.40558522  1
  Pt  Pt74  1  0.69886791  0.54612344  0.45390413  1
  Pt  Pt75  1  0.50165319  0.68681198  0.59466659  1
  Pt  Pt76  1  0.30179305  0.45398237  0.45331835  1
  Pt  Pt77  1  0.43331992  0.36007035  0.35965963  1
  Pt  Pt78  1  0.56705965  0.63993008  0.64057625  1
  Pt  Pt79  1  0.69817530  0.54584371  0.54661380  1
  Pt  Pt80  1  0.37069804  0.68371456  0.50135087  1
  Pt  Pt81  1  0.63025548  0.49906301  0.31611010  1
  Pt  Pt82  1  0.37001545  0.50133886  0.68334527  1
  Pt  Pt83  1  0.62943988  0.31622204  0.49899743  1
  Pt  Pt84  1  0.36881728  0.50056281  0.31354000  1
  Pt  Pt85  1  0.63189760  0.49931773  0.68668799  1
  Pt  Pt86  1  0.63255588  0.68599425  0.49987511  1
  Pt  Pt87  1  0.36732217  0.31395362  0.50027727  1
  Pt  Pt88  1  0.63086460  0.40578406  0.31409938  1
  Pt  Pt89  1  0.30301272  0.63908839  0.54858930  1
  Pt  Pt90  1  0.69681052  0.45147093  0.36157992  1
  Pt  Pt91  1  0.36863194  0.59518926  0.68488771  1
  Pt  Pt92  1  0.36890829  0.68523717  0.59488274  1
  Pt  Pt93  1  0.69684412  0.36080876  0.45174638  1
  Pt  Pt94  1  0.30286443  0.54889575  0.63843335  1
  Pt  Pt95  1  0.63124663  0.31485700  0.40531955  1
  Pt  Pt96  1  0.56483882  0.54542589  0.26809801  1
  Pt  Pt97  1  0.43471018  0.45424927  0.73215414  1
  Pt  Pt98  1  0.36908234  0.68625008  0.40756875  1
  Pt  Pt99  1  0.63061865  0.31402713  0.59267968  1
  Pt  Pt100  1  0.43568301  0.73254079  0.45435176  1
  Pt  Pt101  1  0.63124859  0.59251414  0.31451056  1
  Pt  Pt102  1  0.36866104  0.40753493  0.68535045  1
  Pt  Pt103  1  0.56438406  0.26748733  0.54600806  1
  Pt  Pt104  1  0.43458253  0.54791209  0.73183117  1
  Pt  Pt105  1  0.56622627  0.45177661  0.26773889  1
  Pt  Pt106  1  0.30348570  0.63948829  0.45456651  1
  Pt  Pt107  1  0.69685457  0.36019158  0.54582618  1
  Pt  Pt108  1  0.30258302  0.45493298  0.63879032  1
  Pt  Pt109  1  0.43531322  0.73205798  0.54779185  1
  Pt  Pt110  1  0.69739623  0.54546347  0.36094409  1
  Pt  Pt111  1  0.56480604  0.26803871  0.45261092  1
  Pt  Pt112  1  0.43594722  0.54531912  0.26662139  1
  Au  Au113  1  0.63537850  0.40319444  0.68826950  1
  Au  Au114  1  0.36527265  0.59740457  0.31118115  1
  Au  Au115  1  0.56464158  0.45345766  0.73842182  1
  Au  Au116  1  0.63635670  0.68787061  0.40319361  1
  Au  Au117  1  0.43395888  0.26191125  0.54625420  1
  Au  Au118  1  0.56628550  0.73805332  0.45369744  1
  Au  Au119  1  0.36371701  0.31224423  0.59656430  1
  Au  Au120  1  0.43559489  0.45227422  0.26086574  1
  Au  Au121  1  0.29854494  0.55198302  0.35773050  1
  Au  Au122  1  0.56471559  0.54662995  0.73938287  1
  Au  Au123  1  0.70246879  0.44826717  0.64210992  1
  Au  Au124  1  0.43443432  0.26134764  0.45287461  1
  Au  Au125  1  0.29693689  0.35890156  0.55092320  1
  Au  Au126  1  0.70260520  0.64091352  0.44913816  1
  Au  Au127  1  0.56557199  0.73888409  0.54717068  1
  Au  Au128  1  0.29862960  0.45251914  0.35795993  1
  Au  Au129  1  0.36494989  0.40433183  0.31046113  1
  Au  Au130  1  0.63516867  0.59552535  0.68975323  1
  Au  Au131  1  0.70160931  0.54751861  0.64165652  1
  Au  Au132  1  0.63555405  0.68919679  0.59609718  1
  Au  Au133  1  0.70214991  0.64110473  0.54829633  1
  Au  Au134  1  0.29779122  0.35893564  0.45177563  1
  Au  Au135  1  0.36465120  0.31100611  0.40411024  1
  Au  Au136  1  0.49934469  0.30987500  0.69009437  1
  Au  Au137  1  0.50107701  0.69063530  0.31049354  1
  Au  Au138  1  0.76952794  0.49964787  0.50070445  1
  Au  Au139  1  0.49828507  0.30956214  0.30885223  1
  Au  Au140  1  0.50289024  0.69100161  0.69133364  1
  Au  Au141  1  0.23050637  0.50038125  0.49886554  1
  Au  Au142  1  0.29908007  0.64298484  0.64249698  1
  Au  Au143  1  0.69996194  0.35805498  0.35761473  1
  Au  Au144  1  0.56467550  0.64202061  0.26332432  1
  Au  Au145  1  0.43401221  0.35722602  0.73630627  1
  Au  Au146  1  0.43523456  0.73658034  0.35728798  1
  Au  Au147  1  0.56477386  0.26353239  0.64303192  1
  Au  Au148  1  0.56573236  0.35577949  0.73725748  1
  Au  Au149  1  0.43504006  0.64424537  0.26370922  1
  Au  Au150  1  0.43313130  0.26266745  0.64387969  1
  Au  Au151  1  0.56720812  0.73767705  0.35618523  1
  Au  Au152  1  0.56694687  0.35525086  0.26390306  1
  Au  Au153  1  0.23113286  0.59377645  0.50146822  1
  Au  Au154  1  0.43423205  0.64581583  0.73598066  1
  Au  Au155  1  0.76874121  0.40624312  0.49855276  1
  Au  Au156  1  0.43452462  0.73597240  0.64585240  1
  Au  Au157  1  0.76921856  0.49767837  0.40710992  1
  Au  Au158  1  0.23073280  0.50256937  0.59253161  1
  Au  Au159  1  0.56562496  0.26455727  0.35488822  1
  Au  Au160  1  0.50457612  0.49902103  0.21557061  1
  Au  Au161  1  0.29864700  0.64771103  0.36168894  1
  Au  Au162  1  0.49397021  0.50061334  0.78587458  1
  Au  Au163  1  0.70156025  0.35231922  0.63825065  1
  Au  Au164  1  0.70222709  0.63795749  0.35262083  1
  Au  Au165  1  0.49545671  0.78554588  0.50092369  1
  Au  Au166  1  0.29753311  0.36229595  0.64720086  1
  Au  Au167  1  0.50446971  0.21445696  0.49937316  1
  Au  Au168  1  0.56626390  0.64298480  0.73976424  1
  Au  Au169  1  0.43429902  0.35623796  0.26054687  1
  Au  Au170  1  0.77060086  0.49685357  0.59342928  1
  Au  Au171  1  0.23014697  0.50300432  0.40539560  1
  Au  Au172  1  0.77087786  0.59251485  0.49739316  1
  Au  Au173  1  0.43412883  0.26102916  0.35617105  1
  Au  Au174  1  0.56652579  0.73936817  0.64369523  1
  Au  Au175  1  0.22917104  0.40754126  0.50250111  1
  Au  Au176  1  0.29738094  0.35768257  0.35719110  1
  Au  Au177  1  0.70262028  0.64217792  0.64287271  1
  Au  Au178  1  0.36614133  0.68785654  0.68761529  1
  Au  Au179  1  0.23508717  0.59568090  0.59473775  1
  Au  Au180  1  0.76472355  0.40449003  0.40537004  1
  Au  Au181  1  0.63365537  0.31245474  0.31243283  1
  Au  Au182  1  0.49936913  0.59211095  0.21913845  1
  Au  Au183  1  0.36819212  0.68987207  0.31428368  1
  Au  Au184  1  0.49793435  0.40622937  0.78140366  1
  Au  Au185  1  0.63169999  0.31059406  0.68583901  1
  Au  Au186  1  0.63199857  0.68553407  0.31036339  1
  Au  Au187  1  0.49930155  0.78116143  0.40640519  1
  Au  Au188  1  0.36742287  0.31424480  0.68913458  1
  Au  Au189  1  0.50084075  0.21879207  0.59385114  1
  Au  Au190  1  0.23459122  0.59735670  0.40891534  1
  Au  Au191  1  0.49667651  0.59492937  0.78178881  1
  Au  Au192  1  0.50373617  0.40463464  0.21824100  1
  Au  Au193  1  0.76581015  0.40251529  0.59100923  1
  Au  Au194  1  0.49730593  0.78165700  0.59511198  1
  Au  Au195  1  0.76647564  0.59028148  0.40321855  1
  Au  Au196  1  0.23341147  0.41004109  0.59678501  1
  Au  Au197  1  0.50272725  0.21851960  0.40529098  1
  Au  Au198  1  0.63058176  0.68883600  0.68935419  1
  Au  Au199  1  0.76742509  0.59038817  0.59105655  1
  Au  Au200  1  0.23273447  0.40943944  0.40825935  1
  Au  Au201  1  0.36943339  0.31107976  0.31087943  1
  Au  Au202  1  0.69830590  0.45002243  0.26829952  1
  Au  Au203  1  0.69750779  0.26682160  0.45095643  1
  Au  Au204  1  0.30217456  0.54917522  0.73237768  1
  Au  Au205  1  0.30254270  0.73300122  0.54912633  1
  Au  Au206  1  0.36994557  0.50118021  0.78099264  1
  Au  Au207  1  0.69775400  0.26657899  0.54767635  1
  Au  Au208  1  0.62945763  0.49949403  0.21913809  1
  Au  Au209  1  0.30206503  0.73323063  0.45270799  1
  Au  Au210  1  0.30154835  0.45256650  0.73230888  1
  Au  Au211  1  0.62960231  0.21890114  0.49924551  1
  Au  Au212  1  0.69836307  0.54723519  0.26729108  1
  Au  Au213  1  0.37041972  0.78105883  0.50092512  1
  Au  Au214  1  0.70095604  0.45236583  0.73663551  1
  Au  Au215  1  0.63398138  0.49960695  0.78372013  1
  Au  Au216  1  0.36917660  0.49924165  0.21597533  1
  Au  Au217  1  0.30194360  0.54762461  0.26267189  1
  Au  Au218  1  0.36481731  0.21692655  0.49953291  1
  Au  Au219  1  0.29837411  0.26460592  0.54703330  1
  Au  Au220  1  0.70167903  0.73533548  0.45293775  1
  Au  Au221  1  0.63521092  0.78316759  0.50007873  1
  Au  Au222  1  0.29965551  0.45348092  0.26231035  1
  Au  Au223  1  0.70126374  0.54672647  0.73682348  1
  Au  Au224  1  0.29773122  0.26394946  0.45246102  1
  Au  Au225  1  0.70220420  0.73606223  0.54742666  1
  Au  Au226  1  0.36902909  0.40848612  0.77804707  1
  Au  Au227  1  0.62992686  0.22145803  0.59211885  1
  Au  Au228  1  0.63072144  0.59214854  0.22217753  1
  Au  Au229  1  0.36992843  0.77854317  0.40821334  1
  Au  Au230  1  0.36948758  0.59414589  0.77772972  1
  Au  Au231  1  0.76113900  0.31405839  0.49873972  1
  Au  Au232  1  0.63202604  0.40595588  0.21917485  1
  Au  Au233  1  0.23870858  0.68586977  0.50124739  1
  Au  Au234  1  0.62968158  0.22193704  0.40626457  1
  Au  Au235  1  0.23818404  0.50170543  0.68508937  1
  Au  Au236  1  0.76188041  0.49841939  0.31480055  1
  Au  Au237  1  0.37034074  0.77801624  0.59391335  1
  Au  Au238  1  0.63223136  0.40589381  0.78065431  1
  Au  Au239  1  0.37420215  0.59094985  0.21810464  1
  Au  Au240  1  0.36641541  0.21953199  0.59352549  1
  Au  Au241  1  0.63396423  0.78062690  0.40629874  1
  Au  Au242  1  0.63354633  0.59275845  0.78263635  1
  Au  Au243  1  0.76578376  0.49966861  0.68759187  1
  Au  Au244  1  0.36651253  0.40567691  0.21797781  1
  Au  Au245  1  0.23588450  0.50167521  0.31103711  1
  Au  Au246  1  0.36588916  0.21880455  0.40591939  1
  Au  Au247  1  0.23337028  0.31343692  0.49971990  1
  Au  Au248  1  0.76645303  0.68645541  0.49973507  1
  Au  Au249  1  0.63426874  0.78167804  0.59355326  1
