# generated using pymatgen
data_Pt112Au137
_symmetry_space_group_name_H-M   'P 1'
_cell_length_a   30.00000000
_cell_length_b   30.00000000
_cell_length_c   30.00000000
_cell_angle_alpha   90.00000000
_cell_angle_beta   90.00000000
_cell_angle_gamma   90.00000000
_symmetry_Int_Tables_number   1
_chemical_formula_structural   Pt112Au137
_chemical_formula_sum   'Pt112 Au137'
_cell_volume   27000.00000000
_cell_formula_units_Z   1
loop_
 _symmetry_equiv_pos_site_id
 _symmetry_equiv_pos_as_xyz
  1  'x, y, z'
loop_
 _atom_site_type_symbol
 _atom_site_label
 _atom_site_symmetry_multiplicity
 _atom_site_fract_x
 _atom_site_fract_y
 _atom_site_fract_z
 _atom_site_occupancy
  Pt  Pt0  1  0.50017161  0.49997440  0.50030173  1
  Pt  Pt1  1  0.43553047  0.54597144  0.54570129  1
  Pt  Pt2  1  0.56441773  0.45391317  0.45430112  1
  Pt  Pt3  1  0.43482053  0.54572009  0.45346501  1
  Pt  Pt4  1  0.49930661  0.49967835  0.40787071  1
  Pt  Pt5  1  0.50083166  0.50037042  0.59251469  1
  Pt  Pt6  1  0.56540428  0.45421162  0.54684825  1
  Pt  Pt7  1  0.50129300  0.59248745  0.50064290  1
  Pt  Pt8  1  0.56590935  0.54641791  0.45467811  1
  Pt  Pt9  1  0.43428870  0.45350968  0.54555131  1
  Pt  Pt10  1  0.49884478  0.40748353  0.49979769  1
  Pt  Pt11  1  0.43314905  0.45301347  0.45310678  1
  Pt  Pt12  1  0.56701961  0.54690084  0.54730465  1
  Pt  Pt13  1  0.50047995  0.59330983  0.40736694  1
  Pt  Pt14  1  0.49968428  0.40690485  0.59314408  1
  Pt  Pt15  1  0.50205297  0.59347319  0.59368440  1
  Pt  Pt16  1  0.36776136  0.49954005  0.49891243  1
  Pt  Pt17  1  0.63225896  0.50050520  0.50112793  1
  Pt  Pt18  1  0.49803114  0.40643802  0.40660650  1
  Pt  Pt19  1  0.56502042  0.54624932  0.36193078  1
  Pt  Pt20  1  0.56435228  0.36146137  0.54639040  1
  Pt  Pt21  1  0.43492433  0.45375819  0.63826108  1
  Pt  Pt22  1  0.43571170  0.63853902  0.45393964  1
  Pt  Pt23  1  0.43558293  0.54745262  0.63806144  1
  Pt  Pt24  1  0.63049960  0.40847006  0.49969100  1
  Pt  Pt25  1  0.56391821  0.45285256  0.36175132  1
  Pt  Pt26  1  0.36948980  0.59159373  0.50040604  1
  Pt  Pt27  1  0.56395546  0.36166876  0.45287954  1
  Pt  Pt28  1  0.36915549  0.50069191  0.59109877  1
  Pt  Pt29  1  0.63080962  0.49916577  0.40886921  1
  Pt  Pt30  1  0.43611531  0.63836309  0.54742537  1
  Pt  Pt31  1  0.43374977  0.54696835  0.36062696  1
  Pt  Pt32  1  0.56614414  0.45325170  0.64027282  1
  Pt  Pt33  1  0.56690440  0.63993567  0.45370671  1
  Pt  Pt34  1  0.43317134  0.36000275  0.54652494  1
  Pt  Pt35  1  0.56689422  0.54615647  0.64108576  1
  Pt  Pt36  1  0.63254467  0.49924806  0.59439147  1
  Pt  Pt37  1  0.43329489  0.45378614  0.35958627  1
  Pt  Pt38  1  0.36739234  0.50058469  0.40595876  1
  Pt  Pt39  1  0.36707100  0.40628999  0.50027201  1
  Pt  Pt40  1  0.56730206  0.64063670  0.54674694  1
  Pt  Pt41  1  0.43276792  0.35937529  0.45363879  1
  Pt  Pt42  1  0.63294424  0.59366105  0.49997099  1
  Pt  Pt43  1  0.63090165  0.40672624  0.40715496  1
  Pt  Pt44  1  0.36911733  0.59344732  0.59306502  1
  Pt  Pt45  1  0.50002648  0.50019681  0.68627239  1
  Pt  Pt46  1  0.63147283  0.40645470  0.59307452  1
  Pt  Pt47  1  0.49945313  0.50018160  0.31402162  1
  Pt  Pt48  1  0.36863528  0.59346052  0.40709704  1
  Pt  Pt49  1  0.36773977  0.40736979  0.59307298  1
  Pt  Pt50  1  0.49911511  0.31365919  0.49981720  1
  Pt  Pt51  1  0.63218657  0.59244837  0.40707692  1
  Pt  Pt52  1  0.50098191  0.68634329  0.50041732  1
  Pt  Pt53  1  0.63315791  0.59333404  0.59405185  1
  Pt  Pt54  1  0.36694191  0.40657859  0.40617040  1
  Pt  Pt55  1  0.56495660  0.36021887  0.64030720  1
  Pt  Pt56  1  0.49952794  0.59384791  0.31411190  1
  Pt  Pt57  1  0.50042884  0.40630082  0.68635048  1
  Pt  Pt58  1  0.43510174  0.64016130  0.36019805  1
  Pt  Pt59  1  0.49856203  0.31363007  0.59367242  1
  Pt  Pt60  1  0.43413580  0.35978771  0.63948827  1
  Pt  Pt61  1  0.56589671  0.64005581  0.36068791  1
  Pt  Pt62  1  0.50162407  0.68645103  0.40663984  1
  Pt  Pt63  1  0.56411162  0.35937610  0.35959615  1
  Pt  Pt64  1  0.69851562  0.45330716  0.45419108  1
  Pt  Pt65  1  0.30160529  0.54663262  0.54583600  1
  Pt  Pt66  1  0.43588214  0.64085398  0.64070877  1
  Pt  Pt67  1  0.69843588  0.45321093  0.54676102  1
  Pt  Pt68  1  0.50111180  0.59416904  0.68672114  1
  Pt  Pt69  1  0.49909238  0.40593604  0.31337396  1
  Pt  Pt70  1  0.30155859  0.54667440  0.45319807  1
  Pt  Pt71  1  0.30125346  0.45410722  0.54601539  1
  Pt  Pt72  1  0.49858316  0.31325717  0.40588849  1
  Pt  Pt73  1  0.69874281  0.54590937  0.45416872  1
  Pt  Pt74  1  0.50155928  0.68669088  0.59433604  1
  Pt  Pt75  1  0.30168574  0.45397442  0.45330049  1
  Pt  Pt76  1  0.43320793  0.36023898  0.35990720  1
  Pt  Pt77  1  0.56692110  0.63985523  0.64034085  1
  Pt  Pt78  1  0.69833566  0.54588900  0.54686674  1
  Pt  Pt79  1  0.37067426  0.68393838  0.50106672  1
  Pt  Pt80  1  0.63003128  0.49865194  0.31643068  1
  Pt  Pt81  1  0.36993437  0.50134676  0.68342044  1
  Pt  Pt82  1  0.62934591  0.31606771  0.49909297  1
  Pt  Pt83  1  0.36878455  0.50075820  0.31377846  1
  Pt  Pt84  1  0.63180539  0.49925476  0.68663457  1
  Pt  Pt85  1  0.63252514  0.68581744  0.49979842  1
  Pt  Pt86  1  0.36746671  0.31401247  0.50022732  1
  Pt  Pt87  1  0.63140657  0.40525735  0.31528850  1
  Pt  Pt88  1  0.30313859  0.63931714  0.54861404  1
  Pt  Pt89  1  0.69730148  0.45105409  0.36146622  1
  Pt  Pt90  1  0.36850491  0.59508464  0.68494226  1
  Pt  Pt91  1  0.36881635  0.68533991  0.59469724  1
  Pt  Pt92  1  0.69687232  0.36067662  0.45169037  1
  Pt  Pt93  1  0.30281998  0.54902021  0.63858496  1
  Pt  Pt94  1  0.63115859  0.31472326  0.40539190  1
  Pt  Pt95  1  0.56486342  0.54571123  0.26763435  1
  Pt  Pt96  1  0.43465354  0.45409221  0.73214672  1
  Pt  Pt97  1  0.36955157  0.68611317  0.40734479  1
  Pt  Pt98  1  0.63051004  0.31392735  0.59286648  1
  Pt  Pt99  1  0.43586579  0.73248691  0.45400341  1
  Pt  Pt100  1  0.63133277  0.59216637  0.31453301  1
  Pt  Pt101  1  0.36842690  0.40749503  0.68532056  1
  Pt  Pt102  1  0.56427504  0.26761736  0.54629099  1
  Pt  Pt103  1  0.43456689  0.54767253  0.73186259  1
  Pt  Pt104  1  0.56504898  0.45266845  0.26781113  1
  Pt  Pt105  1  0.30356407  0.63963178  0.45443731  1
  Pt  Pt106  1  0.69653320  0.36030891  0.54567348  1
  Pt  Pt107  1  0.30255728  0.45491283  0.63886523  1
  Pt  Pt108  1  0.43531766  0.73219613  0.54738452  1
  Pt  Pt109  1  0.69736568  0.54497027  0.36114750  1
  Pt  Pt110  1  0.56477182  0.26787814  0.45271782  1
  Pt  Pt111  1  0.43573740  0.54583469  0.26647435  1
  Au  Au112  1  0.63541048  0.40307349  0.68856794  1
  Au  Au113  1  0.36507303  0.59736817  0.31125856  1
  Au  Au114  1  0.56489569  0.45316685  0.73822496  1
  Au  Au115  1  0.63641382  0.68778649  0.40319496  1
  Au  Au116  1  0.43389144  0.26177484  0.54640288  1
  Au  Au117  1  0.56635810  0.73812278  0.45352724  1
  Au  Au118  1  0.36365393  0.31229125  0.59655537  1
  Au  Au119  1  0.43529331  0.45259756  0.26132827  1
  Au  Au120  1  0.29805515  0.55184050  0.35791941  1
  Au  Au121  1  0.56453018  0.54650206  0.73921679  1
  Au  Au122  1  0.70212736  0.44830719  0.64192264  1
  Au  Au123  1  0.43448796  0.26123332  0.45302293  1
  Au  Au124  1  0.29724687  0.35916854  0.55065942  1
  Au  Au125  1  0.70264119  0.64082515  0.44927671  1
  Au  Au126  1  0.56556609  0.73872902  0.54699753  1
  Au  Au127  1  0.29874800  0.45266079  0.35818267  1
  Au  Au128  1  0.36489616  0.40455924  0.31049657  1
  Au  Au129  1  0.63511387  0.59552862  0.68956446  1
  Au  Au130  1  0.70165811  0.54747607  0.64184028  1
  Au  Au131  1  0.63555775  0.68889757  0.59607589  1
  Au  Au132  1  0.70216129  0.64101723  0.54850637  1
  Au  Au133  1  0.29783791  0.35895418  0.45146155  1
  Au  Au134  1  0.36444197  0.31120440  0.40406704  1
  Au  Au135  1  0.49934472  0.30976434  0.69026847  1
  Au  Au136  1  0.50107308  0.69057232  0.31018150  1
  Au  Au137  1  0.76954742  0.49937678  0.50063992  1
  Au  Au138  1  0.49797641  0.30937531  0.30935892  1
  Au  Au139  1  0.50211899  0.69066971  0.69077336  1
  Au  Au140  1  0.23053295  0.50066875  0.49913553  1
  Au  Au141  1  0.29918148  0.64310998  0.64262037  1
  Au  Au142  1  0.70078675  0.35703250  0.35781355  1
  Au  Au143  1  0.56497337  0.64192591  0.26336395  1
  Au  Au144  1  0.43392111  0.35707994  0.73642880  1
  Au  Au145  1  0.43549200  0.73679178  0.35684961  1
  Au  Au146  1  0.56464848  0.26327423  0.64353750  1
  Au  Au147  1  0.56584475  0.35554746  0.73750397  1
  Au  Au148  1  0.43480592  0.64442361  0.26348987  1
  Au  Au149  1  0.43312240  0.26261690  0.64401856  1
  Au  Au150  1  0.56714227  0.73760145  0.35606282  1
  Au  Au151  1  0.56608387  0.35490314  0.26433839  1
  Au  Au152  1  0.23135192  0.59398900  0.50157187  1
  Au  Au153  1  0.43403451  0.64540539  0.73590287  1
  Au  Au154  1  0.76890985  0.40609149  0.49854319  1
  Au  Au155  1  0.43446708  0.73606077  0.64508352  1
  Au  Au156  1  0.76904832  0.49744724  0.40707931  1
  Au  Au157  1  0.23105963  0.50258188  0.59283271  1
  Au  Au158  1  0.56569888  0.26417597  0.35488485  1
  Au  Au159  1  0.50338816  0.49957951  0.21512701  1
  Au  Au160  1  0.29889156  0.64752695  0.36164006  1
  Au  Au161  1  0.49407132  0.50045326  0.78583750  1
  Au  Au162  1  0.70153226  0.35224998  0.63818768  1
  Au  Au163  1  0.70237517  0.63764450  0.35272776  1
  Au  Au164  1  0.49557451  0.78572718  0.50051777  1
  Au  Au165  1  0.29726131  0.36219815  0.64719467  1
  Au  Au166  1  0.50450138  0.21441255  0.49954012  1
  Au  Au167  1  0.56595439  0.64311491  0.73916763  1
  Au  Au168  1  0.43436473  0.35672485  0.26094236  1
  Au  Au169  1  0.77060471  0.49712409  0.59349120  1
  Au  Au170  1  0.22982293  0.50277567  0.40592645  1
  Au  Au171  1  0.77077970  0.59240862  0.49780694  1
  Au  Au172  1  0.43397506  0.26122165  0.35656802  1
  Au  Au173  1  0.56625418  0.73895084  0.64361906  1
  Au  Au174  1  0.22923939  0.40774111  0.50212937  1
  Au  Au175  1  0.29706665  0.35789121  0.35676970  1
  Au  Au176  1  0.70286214  0.64219618  0.64322564  1
  Au  Au177  1  0.36651550  0.68799779  0.68760229  1
  Au  Au178  1  0.23515339  0.59569135  0.59474855  1
  Au  Au179  1  0.76487831  0.40426550  0.40535312  1
  Au  Au180  1  0.63362232  0.31239961  0.31252045  1
  Au  Au181  1  0.49946664  0.59259008  0.21894716  1
  Au  Au182  1  0.36830870  0.68999028  0.31416083  1
  Au  Au183  1  0.49799650  0.40617864  0.78132211  1
  Au  Au184  1  0.63175124  0.31058165  0.68592291  1
  Au  Au185  1  0.63225588  0.68520398  0.31047581  1
  Au  Au186  1  0.49937546  0.78127309  0.40614213  1
  Au  Au187  1  0.36723693  0.31435828  0.68918294  1
  Au  Au188  1  0.50083138  0.21881597  0.59393270  1
  Au  Au189  1  0.23457164  0.59742428  0.40911285  1
  Au  Au190  1  0.49664965  0.59482952  0.78167899  1
  Au  Au191  1  0.50351728  0.40505915  0.21815580  1
  Au  Au192  1  0.76561560  0.40265479  0.59096799  1
  Au  Au193  1  0.49741207  0.78159027  0.59468222  1
  Au  Au194  1  0.76626795  0.58990292  0.40353141  1
  Au  Au195  1  0.23357322  0.40998741  0.59648916  1
  Au  Au196  1  0.50276710  0.21846023  0.40525738  1
  Au  Au197  1  0.63079420  0.68887897  0.68924525  1
  Au  Au198  1  0.76751838  0.59073677  0.59197126  1
  Au  Au199  1  0.23256776  0.40923021  0.40784890  1
  Au  Au200  1  0.36937895  0.31139110  0.31097081  1
  Au  Au201  1  0.69842537  0.45046936  0.26755870  1
  Au  Au202  1  0.69734490  0.26667162  0.45125652  1
  Au  Au203  1  0.30182024  0.54961664  0.73253403  1
  Au  Au204  1  0.30262492  0.73331853  0.54883253  1
  Au  Au205  1  0.36989215  0.50113493  0.78102128  1
  Au  Au206  1  0.69762797  0.26654091  0.54794950  1
  Au  Au207  1  0.63010469  0.49901543  0.21913012  1
  Au  Au208  1  0.30237017  0.73342301  0.45212573  1
  Au  Au209  1  0.30161606  0.45304874  0.73251886  1
  Au  Au210  1  0.62905378  0.21868197  0.49960562  1
  Au  Au211  1  0.69870106  0.54713068  0.26745723  1
  Au  Au212  1  0.37076538  0.78127470  0.50059455  1
  Au  Au213  1  0.70084515  0.45225804  0.73668945  1
  Au  Au214  1  0.63388028  0.49959563  0.78377500  1
  Au  Au215  1  0.36907900  0.49972174  0.21614469  1
  Au  Au216  1  0.30165555  0.54735844  0.26307779  1
  Au  Au217  1  0.36472434  0.21699152  0.49955153  1
  Au  Au218  1  0.29832837  0.26478177  0.54696985  1
  Au  Au219  1  0.70173946  0.73520950  0.45291747  1
  Au  Au220  1  0.63530554  0.78294071  0.50010631  1
  Au  Au221  1  0.29961603  0.45343992  0.26232676  1
  Au  Au222  1  0.70125280  0.54646674  0.73689145  1
  Au  Au223  1  0.29770445  0.26390844  0.45244034  1
  Au  Au224  1  0.70212730  0.73597385  0.54739524  1
  Au  Au225  1  0.36891707  0.40843878  0.77797841  1
  Au  Au226  1  0.62984058  0.22140595  0.59233358  1
  Au  Au227  1  0.63109441  0.59169597  0.22225456  1
  Au  Au228  1  0.37022767  0.77859482  0.40785893  1
  Au  Au229  1  0.36936049  0.59403218  0.77776103  1
  Au  Au230  1  0.76091315  0.31390357  0.49900086  1
  Au  Au231  1  0.63078224  0.40624199  0.22260441  1
  Au  Au232  1  0.23908298  0.68608488  0.50088216  1
  Au  Au233  1  0.62970219  0.22180851  0.40649822  1
  Au  Au234  1  0.23814426  0.50169513  0.68527855  1
  Au  Au235  1  0.76191242  0.49835036  0.31473460  1
  Au  Au236  1  0.37029823  0.77824647  0.59356398  1
  Au  Au237  1  0.63213210  0.40584874  0.78102048  1
  Au  Au238  1  0.37344478  0.59134834  0.21814479  1
  Au  Au239  1  0.36628928  0.21966040  0.59367841  1
  Au  Au240  1  0.63399677  0.78046846  0.40612164  1
  Au  Au241  1  0.63333658  0.59291506  0.78209112  1
  Au  Au242  1  0.76567230  0.49920384  0.68777779  1
  Au  Au243  1  0.36663779  0.40599205  0.21785298  1
  Au  Au244  1  0.23554430  0.50093329  0.31129978  1
  Au  Au245  1  0.36589561  0.21891539  0.40587936  1
  Au  Au246  1  0.23339665  0.31381643  0.49969803  1
  Au  Au247  1  0.76650389  0.68612204  0.50008808  1
  Au  Au248  1  0.63415121  0.78128275  0.59391062  1
