# generated using pymatgen
data_HPt230Au19
_symmetry_space_group_name_H-M   'P 1'
_cell_length_a   30.00000000
_cell_length_b   30.00000000
_cell_length_c   30.00000000
_cell_angle_alpha   90.00000000
_cell_angle_beta   90.00000000
_cell_angle_gamma   90.00000000
_symmetry_Int_Tables_number   1
_chemical_formula_structural   HPt230Au19
_chemical_formula_sum   'H1 Pt230 Au19'
_cell_volume   27000.00000000
_cell_formula_units_Z   1
loop_
 _symmetry_equiv_pos_site_id
 _symmetry_equiv_pos_as_xyz
  1  'x, y, z'
loop_
 _atom_site_type_symbol
 _atom_site_label
 _atom_site_symmetry_multiplicity
 _atom_site_fract_x
 _atom_site_fract_y
 _atom_site_fract_z
 _atom_site_occupancy
  H  H0  1  0.39335668  0.34423030  0.82085140  1
  Pt  Pt1  1  0.49960076  0.50041572  0.50055074  1
  Pt  Pt2  1  0.45374677  0.56658532  0.54710256  1
  Pt  Pt3  1  0.40664516  0.50155477  0.50051650  1
  Pt  Pt4  1  0.54630788  0.56580072  0.45409752  1
  Pt  Pt5  1  0.49866092  0.50048897  0.40747730  1
  Pt  Pt6  1  0.54652583  0.56587077  0.54703895  1
  Pt  Pt7  1  0.45185268  0.43543009  0.45391422  1
  Pt  Pt8  1  0.54483343  0.43426686  0.45406989  1
  Pt  Pt9  1  0.59231075  0.49947698  0.50052254  1
  Pt  Pt10  1  0.54501080  0.43426044  0.54698566  1
  Pt  Pt11  1  0.49899109  0.50065509  0.59352395  1
  Pt  Pt12  1  0.45199613  0.43542824  0.54691885  1
  Pt  Pt13  1  0.45360404  0.56664903  0.45400672  1
  Pt  Pt14  1  0.50066278  0.63201155  0.50062134  1
  Pt  Pt15  1  0.40579643  0.50155817  0.40758425  1
  Pt  Pt16  1  0.40597032  0.50144006  0.59364135  1
  Pt  Pt17  1  0.59164646  0.49960599  0.40736973  1
  Pt  Pt18  1  0.49777024  0.36899321  0.50054195  1
  Pt  Pt19  1  0.59191449  0.49968253  0.59368076  1
  Pt  Pt20  1  0.63812058  0.43200305  0.45514310  1
  Pt  Pt21  1  0.49990495  0.63190225  0.59518172  1
  Pt  Pt22  1  0.35790356  0.43568436  0.45516910  1
  Pt  Pt23  1  0.45359611  0.56844933  0.36082271  1
  Pt  Pt24  1  0.49979707  0.63179451  0.40600232  1
  Pt  Pt25  1  0.54493068  0.56742051  0.64057929  1
  Pt  Pt26  1  0.40318444  0.37095619  0.50037651  1
  Pt  Pt27  1  0.54464530  0.56697237  0.36056868  1
  Pt  Pt28  1  0.45269060  0.43404792  0.64003984  1
  Pt  Pt29  1  0.54324337  0.43297807  0.36056203  1
  Pt  Pt30  1  0.63987533  0.56575855  0.45516004  1
  Pt  Pt31  1  0.49733932  0.36923591  0.40609520  1
  Pt  Pt32  1  0.64004754  0.56579117  0.54591010  1
  Pt  Pt33  1  0.49738275  0.36921596  0.59492264  1
  Pt  Pt34  1  0.54348477  0.43316483  0.64037198  1
  Pt  Pt35  1  0.36008822  0.56897703  0.45506899  1
  Pt  Pt36  1  0.40663542  0.63275736  0.50071314  1
  Pt  Pt37  1  0.36024644  0.56867276  0.54629092  1
  Pt  Pt38  1  0.59530215  0.63053915  0.50043135  1
  Pt  Pt39  1  0.45237720  0.43369238  0.36068953  1
  Pt  Pt40  1  0.45378804  0.56838064  0.64034061  1
  Pt  Pt41  1  0.35795703  0.43575605  0.54583325  1
  Pt  Pt42  1  0.63835437  0.43188144  0.54602982  1
  Pt  Pt43  1  0.59232537  0.36814682  0.50064829  1
  Pt  Pt44  1  0.40392019  0.36988068  0.59269262  1
  Pt  Pt45  1  0.49920136  0.50131036  0.68612050  1
  Pt  Pt46  1  0.40398154  0.36968530  0.40780490  1
  Pt  Pt47  1  0.59346874  0.63088642  0.59374510  1
  Pt  Pt48  1  0.40651316  0.63377475  0.40782290  1
  Pt  Pt49  1  0.31261291  0.50358174  0.50079065  1
  Pt  Pt50  1  0.40669075  0.63362760  0.59358177  1
  Pt  Pt51  1  0.49900952  0.50065331  0.31472575  1
  Pt  Pt52  1  0.59331772  0.63084471  0.40736239  1
  Pt  Pt53  1  0.68519680  0.49836519  0.50076392  1
  Pt  Pt54  1  0.59022634  0.36772558  0.40752775  1
  Pt  Pt55  1  0.59023336  0.36761185  0.59372843  1
  Pt  Pt56  1  0.63464616  0.43292550  0.63749784  1
  Pt  Pt57  1  0.54333754  0.30618415  0.54729072  1
  Pt  Pt58  1  0.40859338  0.50118631  0.68422148  1
  Pt  Pt59  1  0.36110515  0.43599757  0.63766626  1
  Pt  Pt60  1  0.58902460  0.49957446  0.31707680  1
  Pt  Pt61  1  0.63636637  0.56483853  0.36370405  1
  Pt  Pt62  1  0.45045249  0.30727483  0.45387557  1
  Pt  Pt63  1  0.63662723  0.56495738  0.63737380  1
  Pt  Pt64  1  0.45034288  0.30736567  0.54704350  1
  Pt  Pt65  1  0.58907639  0.49975383  0.68394686  1
  Pt  Pt66  1  0.36262216  0.56787380  0.36331788  1
  Pt  Pt67  1  0.45514242  0.69514389  0.45400818  1
  Pt  Pt68  1  0.31525108  0.50258121  0.41003550  1
  Pt  Pt69  1  0.45510073  0.69512850  0.54729966  1
  Pt  Pt70  1  0.31540518  0.50212177  0.59167464  1
  Pt  Pt71  1  0.36286915  0.56746706  0.63826266  1
  Pt  Pt72  1  0.54783335  0.69348750  0.45395386  1
  Pt  Pt73  1  0.40854026  0.50151871  0.31727410  1
  Pt  Pt74  1  0.68227130  0.49828099  0.59096231  1
  Pt  Pt75  1  0.54334255  0.30625643  0.45405284  1
  Pt  Pt76  1  0.54787762  0.69350679  0.54717773  1
  Pt  Pt77  1  0.36107603  0.43624608  0.36374545  1
  Pt  Pt78  1  0.63465585  0.43305016  0.36375914  1
  Pt  Pt79  1  0.68216269  0.49838685  0.41039147  1
  Pt  Pt80  1  0.68356739  0.36621925  0.50075885  1
  Pt  Pt81  1  0.50049370  0.63222770  0.31436751  1
  Pt  Pt82  1  0.50068235  0.63241107  0.68691105  1
  Pt  Pt83  1  0.31157445  0.37129061  0.50062978  1
  Pt  Pt84  1  0.49751959  0.36877543  0.31430880  1
  Pt  Pt85  1  0.68713348  0.62969228  0.50060100  1
  Pt  Pt86  1  0.49693227  0.36917716  0.68637287  1
  Pt  Pt87  1  0.31558784  0.63373273  0.50061904  1
  Pt  Pt88  1  0.35998800  0.70136509  0.55069538  1
  Pt  Pt89  1  0.26326113  0.56823514  0.45575887  1
  Pt  Pt90  1  0.73664712  0.56471914  0.54637319  1
  Pt  Pt91  1  0.54446673  0.30052988  0.35763953  1
  Pt  Pt92  1  0.73382088  0.43064741  0.45548283  1
  Pt  Pt93  1  0.68515505  0.36334638  0.40748942  1
  Pt  Pt94  1  0.63937623  0.29903605  0.54839598  1
  Pt  Pt95  1  0.68517895  0.36296728  0.59386453  1
  Pt  Pt96  1  0.64416345  0.69756227  0.54809338  1
  Pt  Pt97  1  0.40387777  0.36722078  0.31175847  1
  Pt  Pt98  1  0.30814253  0.36814806  0.59492395  1
  Pt  Pt99  1  0.45447623  0.56826469  0.73638282  1
  Pt  Pt100  1  0.54546396  0.56736761  0.26411833  1
  Pt  Pt101  1  0.59392458  0.63432642  0.31228051  1
  Pt  Pt102  1  0.64431504  0.69785703  0.45298751  1
  Pt  Pt103  1  0.45274642  0.43398236  0.26493111  1
  Pt  Pt104  1  0.35418145  0.30451509  0.54995138  1
  Pt  Pt105  1  0.54557247  0.56760419  0.73708642  1
  Pt  Pt106  1  0.54366161  0.43267490  0.26442606  1
  Pt  Pt107  1  0.68900259  0.63294490  0.40748429  1
  Pt  Pt108  1  0.44870829  0.30224047  0.35752554  1
  Pt  Pt109  1  0.68918250  0.63299487  0.59374204  1
  Pt  Pt110  1  0.44874279  0.30205239  0.64339602  1
  Pt  Pt111  1  0.54351623  0.43270131  0.73638981  1
  Pt  Pt112  1  0.40693764  0.63626101  0.31203283  1
  Pt  Pt113  1  0.45365759  0.70043826  0.35798020  1
  Pt  Pt114  1  0.26238354  0.43603737  0.45480945  1
  Pt  Pt115  1  0.45378917  0.70065653  0.64349245  1
  Pt  Pt116  1  0.26215047  0.43578930  0.54704389  1
  Pt  Pt117  1  0.40721055  0.63618911  0.68933508  1
  Pt  Pt118  1  0.54940783  0.69903796  0.64339876  1
  Pt  Pt119  1  0.30822297  0.36809870  0.40619243  1
  Pt  Pt120  1  0.40390679  0.36751991  0.68792243  1
  Pt  Pt121  1  0.45289869  0.43459643  0.73570590  1
  Pt  Pt122  1  0.59023657  0.36430394  0.68939368  1
  Pt  Pt123  1  0.54394483  0.30003364  0.64400126  1
  Pt  Pt124  1  0.35437252  0.30466385  0.45091124  1
  Pt  Pt125  1  0.59411985  0.63447463  0.68917087  1
  Pt  Pt126  1  0.54922279  0.69903884  0.35786800  1
  Pt  Pt127  1  0.45444226  0.56803647  0.26485342  1
  Pt  Pt128  1  0.31395776  0.63818749  0.40561930  1
  Pt  Pt129  1  0.36003978  0.70134137  0.45078299  1
  Pt  Pt130  1  0.73641584  0.56456976  0.45526855  1
  Pt  Pt131  1  0.59077515  0.36433750  0.31221440  1
  Pt  Pt132  1  0.31432566  0.63761439  0.59556887  1
  Pt  Pt133  1  0.26371783  0.56822882  0.54598380  1
  Pt  Pt134  1  0.73440927  0.43029983  0.54651271  1
  Pt  Pt135  1  0.63919762  0.29926220  0.45278961  1
  Pt  Pt136  1  0.31591591  0.50282456  0.31786347  1
  Pt  Pt137  1  0.50220080  0.75921972  0.50061368  1
  Pt  Pt138  1  0.31632834  0.50227553  0.68377546  1
  Pt  Pt139  1  0.68142083  0.49846025  0.31778357  1
  Pt  Pt140  1  0.68134714  0.49824314  0.68347220  1
  Pt  Pt141  1  0.49566775  0.24203905  0.50071296  1
  Pt  Pt142  1  0.36388480  0.69887657  0.35995839  1
  Pt  Pt143  1  0.26943803  0.56913874  0.63794317  1
  Pt  Pt144  1  0.73001286  0.56297919  0.36311887  1
  Pt  Pt145  1  0.63589728  0.43326025  0.27046682  1
  Pt  Pt146  1  0.72791405  0.43201065  0.63835285  1
  Pt  Pt147  1  0.58857695  0.23886807  0.50060479  1
  Pt  Pt148  1  0.63495260  0.30290073  0.36236137  1
  Pt  Pt149  1  0.77583329  0.49681563  0.50088398  1
  Pt  Pt150  1  0.59500627  0.75944004  0.50055391  1
  Pt  Pt151  1  0.36054308  0.43698042  0.26995159  1
  Pt  Pt152  1  0.63988527  0.69440703  0.36251754  1
  Pt  Pt153  1  0.49911306  0.50045692  0.22402469  1
  Pt  Pt154  1  0.63990570  0.69446878  0.63859864  1
  Pt  Pt155  1  0.35817754  0.30688000  0.36054262  1
  Pt  Pt156  1  0.63749629  0.56446746  0.27030421  1
  Pt  Pt157  1  0.40242262  0.24220075  0.50035250  1
  Pt  Pt158  1  0.63754226  0.56454315  0.73083864  1
  Pt  Pt159  1  0.36194626  0.56714475  0.26973514  1
  Pt  Pt160  1  0.50283834  0.76128943  0.40795360  1
  Pt  Pt161  1  0.26759769  0.43768381  0.36213299  1
  Pt  Pt162  1  0.50279106  0.76124629  0.59321614  1
  Pt  Pt163  1  0.26745668  0.43735882  0.63961812  1
  Pt  Pt164  1  0.36208671  0.56697574  0.73176311  1
  Pt  Pt165  1  0.35823633  0.30688624  0.64000092  1
  Pt  Pt166  1  0.49923100  0.50067510  0.77672217  1
  Pt  Pt167  1  0.36080123  0.43594146  0.73237003  1
  Pt  Pt168  1  0.49566305  0.24016925  0.59344349  1
  Pt  Pt169  1  0.63553827  0.43313710  0.73074509  1
  Pt  Pt170  1  0.22143027  0.50141416  0.50107249  1
  Pt  Pt171  1  0.36394688  0.69860197  0.64136998  1
  Pt  Pt172  1  0.73000485  0.56308923  0.63832344  1
  Pt  Pt173  1  0.49570643  0.24018671  0.40798739  1
  Pt  Pt174  1  0.40919477  0.76155517  0.50064531  1
  Pt  Pt175  1  0.26934126  0.56920870  0.36355398  1
  Pt  Pt176  1  0.72794331  0.43243353  0.36297397  1
  Pt  Pt177  1  0.63438050  0.30298204  0.63899078  1
  Pt  Pt178  1  0.58483882  0.24219642  0.59017621  1
  Pt  Pt179  1  0.67855213  0.37157198  0.68233663  1
  Pt  Pt180  1  0.58490185  0.24207200  0.41114734  1
  Pt  Pt181  1  0.76992629  0.49702674  0.59339770  1
  Pt  Pt182  1  0.59181665  0.75633081  0.41117019  1
  Pt  Pt183  1  0.40687122  0.50158169  0.22933792  1
  Pt  Pt184  1  0.67899878  0.37178664  0.31897615  1
  Pt  Pt185  1  0.76999410  0.49698973  0.40840079  1
  Pt  Pt186  1  0.59177639  0.75641404  0.58995062  1
  Pt  Pt187  1  0.31540029  0.37692675  0.31780488  1
  Pt  Pt188  1  0.68223323  0.62469162  0.31909598  1
  Pt  Pt189  1  0.59133609  0.49933286  0.22958641  1
  Pt  Pt190  1  0.40621875  0.24467523  0.41068689  1
  Pt  Pt191  1  0.68228300  0.62487947  0.68216521  1
  Pt  Pt192  1  0.40632434  0.24450531  0.58994342  1
  Pt  Pt193  1  0.59146053  0.49940261  0.77141140  1
  Pt  Pt194  1  0.31526621  0.37650438  0.68357128  1
  Pt  Pt195  1  0.40700129  0.50159326  0.77223826  1
  Pt  Pt196  1  0.22743747  0.50295143  0.59457152  1
  Pt  Pt197  1  0.31850553  0.62825697  0.68406381  1
  Pt  Pt198  1  0.22721014  0.50305326  0.40726681  1
  Pt  Pt199  1  0.41376734  0.76001498  0.59028216  1
  Pt  Pt200  1  0.31817410  0.62856155  0.31734145  1
  Pt  Pt201  1  0.41378113  0.76009867  0.41109526  1
  Pt  Pt202  1  0.53858912  0.30505285  0.73404606  1
  Pt  Pt203  1  0.50067764  0.63443685  0.77878012  1
  Pt  Pt204  1  0.26267473  0.30691789  0.54490821  1
  Pt  Pt205  1  0.26914481  0.69961453  0.54587460  1
  Pt  Pt206  1  0.22300490  0.63652026  0.50066503  1
  Pt  Pt207  1  0.73483172  0.69461906  0.45634547  1
  Pt  Pt208  1  0.49701776  0.36720074  0.22203939  1
  Pt  Pt209  1  0.73492097  0.69466725  0.54530966  1
  Pt  Pt210  1  0.45178800  0.30502799  0.26671322  1
  Pt  Pt211  1  0.49498407  0.36782430  0.77968401  1
  Pt  Pt212  1  0.44951397  0.30517304  0.73517658  1
  Pt  Pt213  1  0.45650116  0.69734465  0.26724995  1
  Pt  Pt214  1  0.21967592  0.37124945  0.50086073  1
  Pt  Pt215  1  0.45697526  0.69738693  0.73404335  1
  Pt  Pt216  1  0.54546378  0.69667610  0.26712379  1
  Pt  Pt217  1  0.50046320  0.63426443  0.22263856  1
  Pt  Pt218  1  0.72995630  0.30081816  0.45605237  1
  Pt  Pt219  1  0.77446397  0.36316060  0.50093977  1
  Pt  Pt220  1  0.73001527  0.30021327  0.54529807  1
  Pt  Pt221  1  0.77825273  0.63104171  0.50082813  1
  Pt  Pt222  1  0.54052668  0.30378609  0.26699781  1
  Pt  Pt223  1  0.26268498  0.30727353  0.45622584  1
  Pt  Pt224  1  0.54586213  0.69676272  0.73435398  1
  Pt  Pt225  1  0.26904516  0.69968049  0.45548838  1
  Pt  Pt226  1  0.31732911  0.75826224  0.50064879  1
  Pt  Pt227  1  0.22736894  0.63466060  0.41250876  1
  Pt  Pt228  1  0.22764034  0.63468916  0.58879919  1
  Pt  Pt229  1  0.40573377  0.37070890  0.77724253  1
  Pt  Pt230  1  0.31232752  0.24687894  0.50022835  1
  Au  Au231  1  0.59416766  0.63180569  0.78093665  1
  Au  Au232  1  0.50212506  0.76456567  0.31377787  1
  Au  Au233  1  0.40724745  0.63288618  0.22022920  1
  Au  Au234  1  0.21658061  0.37201808  0.40732463  1
  Au  Au235  1  0.50286366  0.76481436  0.68738348  1
  Au  Au236  1  0.21634543  0.37131710  0.59434317  1
  Au  Au237  1  0.40742766  0.63300169  0.78125961  1
  Au  Au238  1  0.78048875  0.62945786  0.40738458  1
  Au  Au239  1  0.59043754  0.36758125  0.22031648  1
  Au  Au240  1  0.68904996  0.76265487  0.50095537  1
  Au  Au241  1  0.40388044  0.37048346  0.21958684  1
  Au  Au242  1  0.77685903  0.36574375  0.40760836  1
  Au  Au243  1  0.68257960  0.23363817  0.50015867  1
  Au  Au244  1  0.77672903  0.36424796  0.59457734  1
  Au  Au245  1  0.78076791  0.62967579  0.59430431  1
  Au  Au246  1  0.49529580  0.23666548  0.31389973  1
  Au  Au247  1  0.59401489  0.63197985  0.22081568  1
  Au  Au248  1  0.49351094  0.23691767  0.68876721  1
  Au  Au249  1  0.58880614  0.36795178  0.78163306  1
