# generated using pymatgen
data_HPt230Au19
_symmetry_space_group_name_H-M   'P 1'
_cell_length_a   30.00000000
_cell_length_b   30.00000000
_cell_length_c   30.00000000
_cell_angle_alpha   90.00000000
_cell_angle_beta   90.00000000
_cell_angle_gamma   90.00000000
_symmetry_Int_Tables_number   1
_chemical_formula_structural   HPt230Au19
_chemical_formula_sum   'H1 Pt230 Au19'
_cell_volume   27000.00000000
_cell_formula_units_Z   1
loop_
 _symmetry_equiv_pos_site_id
 _symmetry_equiv_pos_as_xyz
  1  'x, y, z'
loop_
 _atom_site_type_symbol
 _atom_site_label
 _atom_site_symmetry_multiplicity
 _atom_site_fract_x
 _atom_site_fract_y
 _atom_site_fract_z
 _atom_site_occupancy
  H  H0  1  0.27404803  0.50299456  0.27773939  1
  Pt  Pt1  1  0.49943852  0.50043300  0.50052803  1
  Pt  Pt2  1  0.45366175  0.56669393  0.54707750  1
  Pt  Pt3  1  0.40661003  0.50163963  0.50051104  1
  Pt  Pt4  1  0.54624697  0.56581071  0.45421047  1
  Pt  Pt5  1  0.49856987  0.50040552  0.40763551  1
  Pt  Pt6  1  0.54648651  0.56569587  0.54725598  1
  Pt  Pt7  1  0.45172958  0.43522826  0.45422733  1
  Pt  Pt8  1  0.54471818  0.43420476  0.45408393  1
  Pt  Pt9  1  0.59217908  0.49939339  0.50057502  1
  Pt  Pt10  1  0.54475723  0.43429237  0.54698000  1
  Pt  Pt11  1  0.49874645  0.50061785  0.59361803  1
  Pt  Pt12  1  0.45178539  0.43538646  0.54709724  1
  Pt  Pt13  1  0.45358958  0.56662272  0.45414880  1
  Pt  Pt14  1  0.50070174  0.63207172  0.50074546  1
  Pt  Pt15  1  0.40572951  0.50137361  0.40763867  1
  Pt  Pt16  1  0.40555378  0.50190595  0.59327585  1
  Pt  Pt17  1  0.59156899  0.49961750  0.40734977  1
  Pt  Pt18  1  0.49771154  0.36890149  0.50073880  1
  Pt  Pt19  1  0.59182423  0.49921871  0.59378814  1
  Pt  Pt20  1  0.63808747  0.43208584  0.45506638  1
  Pt  Pt21  1  0.49998503  0.63171393  0.59542082  1
  Pt  Pt22  1  0.35788069  0.43576508  0.45509085  1
  Pt  Pt23  1  0.45324427  0.56823971  0.36107549  1
  Pt  Pt24  1  0.49964313  0.63180682  0.40615384  1
  Pt  Pt25  1  0.54458000  0.56670541  0.64092298  1
  Pt  Pt26  1  0.40312982  0.37092146  0.50099730  1
  Pt  Pt27  1  0.54455532  0.56696114  0.36066899  1
  Pt  Pt28  1  0.45224902  0.43427314  0.63995316  1
  Pt  Pt29  1  0.54311415  0.43304750  0.36059975  1
  Pt  Pt30  1  0.63979050  0.56561268  0.45518609  1
  Pt  Pt31  1  0.49720412  0.36918807  0.40613255  1
  Pt  Pt32  1  0.64001924  0.56558884  0.54603472  1
  Pt  Pt33  1  0.49711534  0.36921174  0.59517992  1
  Pt  Pt34  1  0.54319312  0.43301820  0.64079030  1
  Pt  Pt35  1  0.36015823  0.56880720  0.45451670  1
  Pt  Pt36  1  0.40665934  0.63286423  0.50039671  1
  Pt  Pt37  1  0.36002537  0.56903087  0.54587934  1
  Pt  Pt38  1  0.59533545  0.63041921  0.50066643  1
  Pt  Pt39  1  0.45203957  0.43387585  0.36093043  1
  Pt  Pt40  1  0.45364735  0.56842614  0.64040752  1
  Pt  Pt41  1  0.35783712  0.43576961  0.54583335  1
  Pt  Pt42  1  0.63839944  0.43177421  0.54601131  1
  Pt  Pt43  1  0.59228502  0.36819470  0.50064315  1
  Pt  Pt44  1  0.40380675  0.36967187  0.59374507  1
  Pt  Pt45  1  0.49869137  0.50034699  0.68680800  1
  Pt  Pt46  1  0.40414980  0.36957073  0.40820067  1
  Pt  Pt47  1  0.59343315  0.63080492  0.59367047  1
  Pt  Pt48  1  0.40672921  0.63417589  0.40808453  1
  Pt  Pt49  1  0.31275467  0.50369300  0.50109232  1
  Pt  Pt50  1  0.40661165  0.63368360  0.59327263  1
  Pt  Pt51  1  0.49933779  0.50073072  0.31497521  1
  Pt  Pt52  1  0.59310874  0.63074886  0.40742851  1
  Pt  Pt53  1  0.68523327  0.49819696  0.50082965  1
  Pt  Pt54  1  0.59002026  0.36779581  0.40746654  1
  Pt  Pt55  1  0.59012433  0.36786255  0.59367240  1
  Pt  Pt56  1  0.63467756  0.43284582  0.63760551  1
  Pt  Pt57  1  0.54328201  0.30621419  0.54730559  1
  Pt  Pt58  1  0.40817509  0.50193845  0.68374244  1
  Pt  Pt59  1  0.36071784  0.43648950  0.63728517  1
  Pt  Pt60  1  0.58921553  0.49958235  0.31701266  1
  Pt  Pt61  1  0.63638151  0.56487624  0.36371495  1
  Pt  Pt62  1  0.45040697  0.30720801  0.45433080  1
  Pt  Pt63  1  0.63628534  0.56464274  0.63746561  1
  Pt  Pt64  1  0.45025719  0.30724831  0.54747724  1
  Pt  Pt65  1  0.58889169  0.49940179  0.68417928  1
  Pt  Pt66  1  0.36225522  0.56717129  0.36306141  1
  Pt  Pt67  1  0.45523747  0.69549258  0.45419839  1
  Pt  Pt68  1  0.31535373  0.50248097  0.40932851  1
  Pt  Pt69  1  0.45523729  0.69510569  0.54742720  1
  Pt  Pt70  1  0.31502713  0.50260637  0.59156580  1
  Pt  Pt71  1  0.36250318  0.56808885  0.63783003  1
  Pt  Pt72  1  0.54791620  0.69341664  0.45406849  1
  Pt  Pt73  1  0.40789320  0.50150327  0.31750611  1
  Pt  Pt74  1  0.68227073  0.49809620  0.59102290  1
  Pt  Pt75  1  0.54336720  0.30627782  0.45414271  1
  Pt  Pt76  1  0.54790760  0.69342026  0.54729368  1
  Pt  Pt77  1  0.36077354  0.43675027  0.36358409  1
  Pt  Pt78  1  0.63466407  0.43303648  0.36376424  1
  Pt  Pt79  1  0.68216467  0.49840774  0.41034682  1
  Pt  Pt80  1  0.68350538  0.36645012  0.50080599  1
  Pt  Pt81  1  0.50038626  0.63202176  0.31455884  1
  Pt  Pt82  1  0.50061535  0.63237368  0.68690756  1
  Pt  Pt83  1  0.31157541  0.37149462  0.50054069  1
  Pt  Pt84  1  0.49737820  0.36884845  0.31451066  1
  Pt  Pt85  1  0.68709092  0.62956476  0.50068607  1
  Pt  Pt86  1  0.49736199  0.36902610  0.68648047  1
  Pt  Pt87  1  0.31562054  0.63377725  0.50045533  1
  Pt  Pt88  1  0.36000491  0.70128275  0.55038620  1
  Pt  Pt89  1  0.26394701  0.56820919  0.45572194  1
  Pt  Pt90  1  0.73655084  0.56447612  0.54625650  1
  Pt  Pt91  1  0.54450277  0.30039631  0.35766761  1
  Pt  Pt92  1  0.73392681  0.43070457  0.45543000  1
  Pt  Pt93  1  0.68512942  0.36342580  0.40742997  1
  Pt  Pt94  1  0.63929900  0.29927750  0.54848684  1
  Pt  Pt95  1  0.68533296  0.36298853  0.59402354  1
  Pt  Pt96  1  0.64432809  0.69771373  0.54826631  1
  Pt  Pt97  1  0.40384179  0.36730124  0.31241284  1
  Pt  Pt98  1  0.30823289  0.36823577  0.59495267  1
  Pt  Pt99  1  0.45454918  0.56817659  0.73634309  1
  Pt  Pt100  1  0.54559159  0.56747574  0.26411008  1
  Pt  Pt101  1  0.59392044  0.63422551  0.31216683  1
  Pt  Pt102  1  0.64421290  0.69765029  0.45296803  1
  Pt  Pt103  1  0.45283002  0.43429563  0.26548201  1
  Pt  Pt104  1  0.35425580  0.30443096  0.55004130  1
  Pt  Pt105  1  0.54564709  0.56742857  0.73710079  1
  Pt  Pt106  1  0.54369001  0.43269819  0.26442016  1
  Pt  Pt107  1  0.68887897  0.63279088  0.40749527  1
  Pt  Pt108  1  0.44870392  0.30213042  0.35772499  1
  Pt  Pt109  1  0.68898514  0.63292566  0.59380827  1
  Pt  Pt110  1  0.44865660  0.30074506  0.64360555  1
  Pt  Pt111  1  0.54448226  0.43266534  0.73786430  1
  Pt  Pt112  1  0.40692306  0.63602930  0.31262779  1
  Pt  Pt113  1  0.45360864  0.70049900  0.35797529  1
  Pt  Pt114  1  0.26272026  0.43636219  0.45486060  1
  Pt  Pt115  1  0.45386015  0.70066898  0.64350199  1
  Pt  Pt116  1  0.26200243  0.43588383  0.54691191  1
  Pt  Pt117  1  0.40719989  0.63639645  0.68914347  1
  Pt  Pt118  1  0.54930434  0.69919912  0.64332232  1
  Pt  Pt119  1  0.30855542  0.36839861  0.40625458  1
  Pt  Pt120  1  0.40388133  0.36661840  0.68697953  1
  Pt  Pt121  1  0.45411337  0.43559554  0.73559840  1
  Pt  Pt122  1  0.59062567  0.36451801  0.68931071  1
  Pt  Pt123  1  0.54410018  0.30028750  0.64347558  1
  Pt  Pt124  1  0.35443836  0.30474796  0.45112640  1
  Pt  Pt125  1  0.59383659  0.63426886  0.68860612  1
  Pt  Pt126  1  0.54921593  0.69894237  0.35788006  1
  Pt  Pt127  1  0.45447601  0.56780418  0.26543637  1
  Pt  Pt128  1  0.31424045  0.63805197  0.40554377  1
  Pt  Pt129  1  0.35979059  0.70178531  0.45050578  1
  Pt  Pt130  1  0.73627790  0.56442542  0.45518367  1
  Pt  Pt131  1  0.59073039  0.36441362  0.31225124  1
  Pt  Pt132  1  0.31389209  0.63808238  0.59556540  1
  Pt  Pt133  1  0.26318624  0.56847068  0.54594213  1
  Pt  Pt134  1  0.73469270  0.43034533  0.54641775  1
  Pt  Pt135  1  0.63916595  0.29944313  0.45278167  1
  Pt  Pt136  1  0.31142698  0.50302411  0.31386351  1
  Pt  Pt137  1  0.50226118  0.75913729  0.50073502  1
  Pt  Pt138  1  0.31586310  0.50289674  0.68332995  1
  Pt  Pt139  1  0.68135193  0.49842141  0.31780015  1
  Pt  Pt140  1  0.68141882  0.49813324  0.68341727  1
  Pt  Pt141  1  0.49571855  0.24206338  0.50071731  1
  Pt  Pt142  1  0.36365865  0.69910593  0.35984144  1
  Pt  Pt143  1  0.26899293  0.56954652  0.63788265  1
  Pt  Pt144  1  0.73000055  0.56299671  0.36302562  1
  Pt  Pt145  1  0.63587795  0.43321773  0.27038864  1
  Pt  Pt146  1  0.72809840  0.43199113  0.63832000  1
  Pt  Pt147  1  0.58855044  0.23885769  0.50058125  1
  Pt  Pt148  1  0.63489965  0.30301182  0.36235827  1
  Pt  Pt149  1  0.77605443  0.49682598  0.50071561  1
  Pt  Pt150  1  0.59498711  0.75946491  0.50051580  1
  Pt  Pt151  1  0.36040983  0.43731774  0.27034782  1
  Pt  Pt152  1  0.63977142  0.69426176  0.36248824  1
  Pt  Pt153  1  0.49916734  0.50059148  0.22419662  1
  Pt  Pt154  1  0.63982610  0.69459268  0.63860667  1
  Pt  Pt155  1  0.35809529  0.30688903  0.36077348  1
  Pt  Pt156  1  0.63754055  0.56453797  0.27027547  1
  Pt  Pt157  1  0.40247380  0.24194829  0.50038886  1
  Pt  Pt158  1  0.63771266  0.56444478  0.73063276  1
  Pt  Pt159  1  0.36181524  0.56700277  0.27011633  1
  Pt  Pt160  1  0.50286988  0.76126359  0.40798827  1
  Pt  Pt161  1  0.26760597  0.43788238  0.36214626  1
  Pt  Pt162  1  0.50272488  0.76136198  0.59325388  1
  Pt  Pt163  1  0.26729488  0.43739585  0.63930947  1
  Pt  Pt164  1  0.36196454  0.56731414  0.73154748  1
  Pt  Pt165  1  0.35764037  0.30596298  0.63973955  1
  Pt  Pt166  1  0.49979669  0.50129909  0.77769200  1
  Pt  Pt167  1  0.36122121  0.43659843  0.73110890  1
  Pt  Pt168  1  0.49568096  0.23982358  0.59325398  1
  Pt  Pt169  1  0.63601384  0.43336169  0.73103019  1
  Pt  Pt170  1  0.22139902  0.50157300  0.50083961  1
  Pt  Pt171  1  0.36395541  0.69871991  0.64118794  1
  Pt  Pt172  1  0.72979587  0.56303629  0.63831217  1
  Pt  Pt173  1  0.49569635  0.24021636  0.40801770  1
  Pt  Pt174  1  0.40908973  0.76161659  0.50067271  1
  Pt  Pt175  1  0.26937992  0.56916693  0.36340197  1
  Pt  Pt176  1  0.72791155  0.43245413  0.36297824  1
  Pt  Pt177  1  0.63445211  0.30303526  0.63901675  1
  Pt  Pt178  1  0.58495417  0.24212860  0.58998248  1
  Pt  Pt179  1  0.67883523  0.37174302  0.68235314  1
  Pt  Pt180  1  0.58496490  0.24210594  0.41125919  1
  Pt  Pt181  1  0.76995605  0.49704668  0.59342880  1
  Pt  Pt182  1  0.59180476  0.75627828  0.41118894  1
  Pt  Pt183  1  0.40694811  0.50163217  0.22940019  1
  Pt  Pt184  1  0.67895857  0.37185863  0.31893642  1
  Pt  Pt185  1  0.77004446  0.49704079  0.40819878  1
  Pt  Pt186  1  0.59173039  0.75643500  0.58984639  1
  Pt  Pt187  1  0.31535630  0.37681485  0.31787921  1
  Pt  Pt188  1  0.68228718  0.62472583  0.31906249  1
  Pt  Pt189  1  0.59139041  0.49934596  0.22959581  1
  Pt  Pt190  1  0.40622542  0.24470397  0.41088988  1
  Pt  Pt191  1  0.68211013  0.62483075  0.68207773  1
  Pt  Pt192  1  0.40621360  0.24396056  0.58973173  1
  Pt  Pt193  1  0.59204721  0.49980868  0.77172280  1
  Pt  Pt194  1  0.31544803  0.37662309  0.68349434  1
  Pt  Pt195  1  0.40692195  0.50172707  0.77199511  1
  Pt  Pt196  1  0.22725961  0.50306540  0.59434586  1
  Pt  Pt197  1  0.31834576  0.62864196  0.68397836  1
  Pt  Pt198  1  0.22705249  0.50320498  0.40753127  1
  Pt  Pt199  1  0.41370141  0.75988882  0.59030107  1
  Pt  Pt200  1  0.31816352  0.62887346  0.31729096  1
  Pt  Pt201  1  0.41383620  0.76016646  0.41101401  1
  Pt  Pt202  1  0.54109811  0.30385457  0.73341668  1
  Pt  Pt203  1  0.50087482  0.63440086  0.77844966  1
  Pt  Pt204  1  0.26291908  0.30721050  0.54472541  1
  Pt  Pt205  1  0.26893429  0.69976444  0.54587730  1
  Pt  Pt206  1  0.22281923  0.63646534  0.50061979  1
  Pt  Pt207  1  0.73479384  0.69431607  0.45628781  1
  Pt  Pt208  1  0.49705636  0.36731347  0.22240228  1
  Pt  Pt209  1  0.73512833  0.69438319  0.54528263  1
  Pt  Pt210  1  0.45176748  0.30485716  0.26701946  1
  Pt  Pt211  1  0.49748439  0.36660258  0.77877900  1
  Pt  Pt212  1  0.45212783  0.30461793  0.73447447  1
  Pt  Pt213  1  0.45647436  0.69710299  0.26745534  1
  Pt  Pt214  1  0.21963740  0.37135410  0.50075098  1
  Pt  Pt215  1  0.45704558  0.69756499  0.73410035  1
  Pt  Pt216  1  0.54539437  0.69644229  0.26711813  1
  Pt  Pt217  1  0.50057700  0.63402963  0.22266911  1
  Pt  Pt218  1  0.72980430  0.30099807  0.45613473  1
  Pt  Pt219  1  0.77457975  0.36317367  0.50090222  1
  Pt  Pt220  1  0.73004523  0.30041561  0.54532401  1
  Pt  Pt221  1  0.77828716  0.63074239  0.50075116  1
  Pt  Pt222  1  0.54049292  0.30384597  0.26711566  1
  Pt  Pt223  1  0.26283854  0.30727153  0.45608946  1
  Pt  Pt224  1  0.54600625  0.69676704  0.73419849  1
  Pt  Pt225  1  0.26895670  0.69954690  0.45554640  1
  Pt  Pt226  1  0.31710631  0.75835145  0.50077644  1
  Pt  Pt227  1  0.22748584  0.63451543  0.41257592  1
  Pt  Pt228  1  0.22714165  0.63505217  0.58874249  1
  Pt  Pt229  1  0.40821643  0.37228846  0.77380382  1
  Pt  Pt230  1  0.31226357  0.24689792  0.50019064  1
  Au  Au231  1  0.59453846  0.63187183  0.78033701  1
  Au  Au232  1  0.50220200  0.76439531  0.31380175  1
  Au  Au233  1  0.40748980  0.63263711  0.22069945  1
  Au  Au234  1  0.21686054  0.37198591  0.40762545  1
  Au  Au235  1  0.50291991  0.76484479  0.68753153  1
  Au  Au236  1  0.21646158  0.37129633  0.59417492  1
  Au  Au237  1  0.40741630  0.63307254  0.78096293  1
  Au  Au238  1  0.78049469  0.62919611  0.40736264  1
  Au  Au239  1  0.59053639  0.36746890  0.22048702  1
  Au  Au240  1  0.68900919  0.76234459  0.50098201  1
  Au  Au241  1  0.40388739  0.37042929  0.22069003  1
  Au  Au242  1  0.77685035  0.36573273  0.40760960  1
  Au  Au243  1  0.68245363  0.23388159  0.50045698  1
  Au  Au244  1  0.77691985  0.36438769  0.59449123  1
  Au  Au245  1  0.78052122  0.62921012  0.59433398  1
  Au  Au246  1  0.49533403  0.23655631  0.31397395  1
  Au  Au247  1  0.59411963  0.63198611  0.22052146  1
  Au  Au248  1  0.49577075  0.23582256  0.68820842  1
  Au  Au249  1  0.59097480  0.36703073  0.78149710  1
