# generated using pymatgen
data_HPt230Au19
_symmetry_space_group_name_H-M   'P 1'
_cell_length_a   30.00000000
_cell_length_b   30.00000000
_cell_length_c   30.00000000
_cell_angle_alpha   90.00000000
_cell_angle_beta   90.00000000
_cell_angle_gamma   90.00000000
_symmetry_Int_Tables_number   1
_chemical_formula_structural   HPt230Au19
_chemical_formula_sum   'H1 Pt230 Au19'
_cell_volume   27000.00000000
_cell_formula_units_Z   1
loop_
 _symmetry_equiv_pos_site_id
 _symmetry_equiv_pos_as_xyz
  1  'x, y, z'
loop_
 _atom_site_type_symbol
 _atom_site_label
 _atom_site_symmetry_multiplicity
 _atom_site_fract_x
 _atom_site_fract_y
 _atom_site_fract_z
 _atom_site_occupancy
  H  H0  1  0.71199391  0.66066194  0.28766333  1
  Pt  Pt1  1  0.49918227  0.49994411  0.50085669  1
  Pt  Pt2  1  0.45353393  0.56655442  0.54712484  1
  Pt  Pt3  1  0.40633635  0.50153325  0.50049530  1
  Pt  Pt4  1  0.54595376  0.56552184  0.45437270  1
  Pt  Pt5  1  0.49848668  0.50010400  0.40792207  1
  Pt  Pt6  1  0.54626973  0.56561589  0.54718267  1
  Pt  Pt7  1  0.45123615  0.43494700  0.45423993  1
  Pt  Pt8  1  0.54394230  0.43297119  0.45497152  1
  Pt  Pt9  1  0.59179620  0.49909939  0.50065740  1
  Pt  Pt10  1  0.54481112  0.43399297  0.54757172  1
  Pt  Pt11  1  0.49866470  0.50061318  0.59385953  1
  Pt  Pt12  1  0.45164889  0.43528940  0.54727567  1
  Pt  Pt13  1  0.45367003  0.56660127  0.45423769  1
  Pt  Pt14  1  0.50068418  0.63209234  0.50086661  1
  Pt  Pt15  1  0.40585124  0.50157345  0.40762059  1
  Pt  Pt16  1  0.40548888  0.50177982  0.59335219  1
  Pt  Pt17  1  0.59068087  0.49778374  0.40826851  1
  Pt  Pt18  1  0.49752819  0.36870546  0.50117090  1
  Pt  Pt19  1  0.59175609  0.49946111  0.59367165  1
  Pt  Pt20  1  0.63792361  0.43176611  0.45492616  1
  Pt  Pt21  1  0.50000677  0.63172089  0.59545675  1
  Pt  Pt22  1  0.35773329  0.43549177  0.45535994  1
  Pt  Pt23  1  0.45432572  0.56839932  0.36108536  1
  Pt  Pt24  1  0.50016744  0.63196630  0.40636183  1
  Pt  Pt25  1  0.54455509  0.56677368  0.64088124  1
  Pt  Pt26  1  0.40292138  0.37070482  0.50101932  1
  Pt  Pt27  1  0.54579639  0.56683141  0.36161534  1
  Pt  Pt28  1  0.45217577  0.43415791  0.64008218  1
  Pt  Pt29  1  0.54338604  0.43264228  0.36083238  1
  Pt  Pt30  1  0.63872722  0.56551955  0.45384873  1
  Pt  Pt31  1  0.49691670  0.36882107  0.40624794  1
  Pt  Pt32  1  0.63981909  0.56552596  0.54510868  1
  Pt  Pt33  1  0.49722994  0.36903813  0.59553273  1
  Pt  Pt34  1  0.54315924  0.43313742  0.64094119  1
  Pt  Pt35  1  0.36017048  0.56914959  0.45490604  1
  Pt  Pt36  1  0.40668041  0.63291938  0.50055086  1
  Pt  Pt37  1  0.35998477  0.56908986  0.54604165  1
  Pt  Pt38  1  0.59506446  0.63051261  0.50020672  1
  Pt  Pt39  1  0.45254848  0.43364547  0.36081042  1
  Pt  Pt40  1  0.45355826  0.56848972  0.64049961  1
  Pt  Pt41  1  0.35767696  0.43555203  0.54594710  1
  Pt  Pt42  1  0.63841230  0.43194073  0.54574997  1
  Pt  Pt43  1  0.59241236  0.36773933  0.50111152  1
  Pt  Pt44  1  0.40384189  0.36963906  0.59389537  1
  Pt  Pt45  1  0.49853068  0.50043329  0.68686049  1
  Pt  Pt46  1  0.40370182  0.36971274  0.40785027  1
  Pt  Pt47  1  0.59347264  0.63063665  0.59327616  1
  Pt  Pt48  1  0.40677733  0.63370395  0.40776313  1
  Pt  Pt49  1  0.31260345  0.50363655  0.50068238  1
  Pt  Pt50  1  0.40668172  0.63379019  0.59346600  1
  Pt  Pt51  1  0.49957006  0.50063506  0.31525377  1
  Pt  Pt52  1  0.59335236  0.63195281  0.40746345  1
  Pt  Pt53  1  0.68478456  0.49836729  0.50005808  1
  Pt  Pt54  1  0.59004545  0.36738353  0.40781376  1
  Pt  Pt55  1  0.59019405  0.36772300  0.59387618  1
  Pt  Pt56  1  0.63464427  0.43316460  0.63735326  1
  Pt  Pt57  1  0.54329324  0.30604219  0.54763765  1
  Pt  Pt58  1  0.40810687  0.50194821  0.68375500  1
  Pt  Pt59  1  0.36057086  0.43644411  0.63727570  1
  Pt  Pt60  1  0.58985437  0.49986511  0.31810374  1
  Pt  Pt61  1  0.63724129  0.56644320  0.36283039  1
  Pt  Pt62  1  0.45004357  0.30730682  0.45427682  1
  Pt  Pt63  1  0.63629618  0.56470805  0.63716660  1
  Pt  Pt64  1  0.45021297  0.30727734  0.54747683  1
  Pt  Pt65  1  0.58878791  0.49959085  0.68419478  1
  Pt  Pt66  1  0.36290214  0.56793375  0.36333707  1
  Pt  Pt67  1  0.45503230  0.69523376  0.45404262  1
  Pt  Pt68  1  0.31536151  0.50253859  0.41015573  1
  Pt  Pt69  1  0.45521590  0.69509184  0.54738295  1
  Pt  Pt70  1  0.31506835  0.50258638  0.59123825  1
  Pt  Pt71  1  0.36239017  0.56810864  0.63778123  1
  Pt  Pt72  1  0.54759040  0.69401631  0.45437797  1
  Pt  Pt73  1  0.40900165  0.50165465  0.31738671  1
  Pt  Pt74  1  0.68223528  0.49839463  0.59045386  1
  Pt  Pt75  1  0.54311577  0.30622019  0.45441802  1
  Pt  Pt76  1  0.54794539  0.69353594  0.54741622  1
  Pt  Pt77  1  0.36123179  0.43639924  0.36385254  1
  Pt  Pt78  1  0.63464999  0.43246840  0.36368348  1
  Pt  Pt79  1  0.68114313  0.49870050  0.40940452  1
  Pt  Pt80  1  0.68355498  0.36644426  0.50057480  1
  Pt  Pt81  1  0.50094337  0.63222787  0.31486200  1
  Pt  Pt82  1  0.50069057  0.63238270  0.68697361  1
  Pt  Pt83  1  0.31135563  0.37124241  0.50063463  1
  Pt  Pt84  1  0.49765468  0.36877807  0.31437954  1
  Pt  Pt85  1  0.68661943  0.62958585  0.50010686  1
  Pt  Pt86  1  0.49731317  0.36894973  0.68664786  1
  Pt  Pt87  1  0.31545600  0.63386349  0.50053734  1
  Pt  Pt88  1  0.35994373  0.70130954  0.55050594  1
  Pt  Pt89  1  0.26348352  0.56843915  0.45570305  1
  Pt  Pt90  1  0.73652626  0.56468420  0.54603762  1
  Pt  Pt91  1  0.54448396  0.30043014  0.35777862  1
  Pt  Pt92  1  0.73362559  0.43101320  0.45511058  1
  Pt  Pt93  1  0.68531429  0.36312863  0.40720141  1
  Pt  Pt94  1  0.63956356  0.29891495  0.54852185  1
  Pt  Pt95  1  0.68519221  0.36322289  0.59373513  1
  Pt  Pt96  1  0.64429340  0.69756808  0.54792114  1
  Pt  Pt97  1  0.40397060  0.36731502  0.31197636  1
  Pt  Pt98  1  0.30806579  0.36797146  0.59494837  1
  Pt  Pt99  1  0.45456690  0.56830809  0.73642975  1
  Pt  Pt100  1  0.54580406  0.56737577  0.26544986  1
  Pt  Pt101  1  0.59437865  0.63470194  0.31305284  1
  Pt  Pt102  1  0.64388095  0.69828527  0.45262168  1
  Pt  Pt103  1  0.45303615  0.43412012  0.26486159  1
  Pt  Pt104  1  0.35427172  0.30445875  0.55010494  1
  Pt  Pt105  1  0.54578145  0.56753138  0.73707783  1
  Pt  Pt106  1  0.54395362  0.43291093  0.26477206  1
  Pt  Pt107  1  0.68811837  0.63341472  0.40662117  1
  Pt  Pt108  1  0.44860156  0.30219878  0.35760239  1
  Pt  Pt109  1  0.68887765  0.63254257  0.59319865  1
  Pt  Pt110  1  0.44857532  0.30079891  0.64354051  1
  Pt  Pt111  1  0.54459063  0.43274301  0.73792226  1
  Pt  Pt112  1  0.40748117  0.63605696  0.31216589  1
  Pt  Pt113  1  0.45379383  0.70031866  0.35799954  1
  Pt  Pt114  1  0.26220479  0.43600332  0.45480619  1
  Pt  Pt115  1  0.45387293  0.70074909  0.64357600  1
  Pt  Pt116  1  0.26192211  0.43580619  0.54697879  1
  Pt  Pt117  1  0.40714593  0.63649848  0.68929452  1
  Pt  Pt118  1  0.54939029  0.69904527  0.64330202  1
  Pt  Pt119  1  0.30809545  0.36808676  0.40620087  1
  Pt  Pt120  1  0.40377663  0.36644062  0.68708911  1
  Pt  Pt121  1  0.45420240  0.43564131  0.73562963  1
  Pt  Pt122  1  0.59047544  0.36464151  0.68931552  1
  Pt  Pt123  1  0.54401569  0.29984036  0.64387221  1
  Pt  Pt124  1  0.35421765  0.30467021  0.45086138  1
  Pt  Pt125  1  0.59400968  0.63413941  0.68865687  1
  Pt  Pt126  1  0.54949904  0.69944820  0.35822982  1
  Pt  Pt127  1  0.45465698  0.56811227  0.26505999  1
  Pt  Pt128  1  0.31390395  0.63838445  0.40527452  1
  Pt  Pt129  1  0.35996611  0.70141758  0.45053943  1
  Pt  Pt130  1  0.73494883  0.56460975  0.45469915  1
  Pt  Pt131  1  0.59096824  0.36413947  0.31213431  1
  Pt  Pt132  1  0.31388566  0.63822760  0.59572912  1
  Pt  Pt133  1  0.26325498  0.56846796  0.54590913  1
  Pt  Pt134  1  0.73468830  0.43052352  0.54610864  1
  Pt  Pt135  1  0.63924633  0.29931122  0.45283464  1
  Pt  Pt136  1  0.31609874  0.50293057  0.31807953  1
  Pt  Pt137  1  0.50200243  0.75937406  0.50089018  1
  Pt  Pt138  1  0.31583871  0.50289742  0.68328562  1
  Pt  Pt139  1  0.68174501  0.49801977  0.31725679  1
  Pt  Pt140  1  0.68140294  0.49836635  0.68313442  1
  Pt  Pt141  1  0.49565895  0.24189660  0.50078001  1
  Pt  Pt142  1  0.36399021  0.69884825  0.35971217  1
  Pt  Pt143  1  0.26903298  0.56951476  0.63783090  1
  Pt  Pt144  1  0.72912001  0.56364344  0.36187758  1
  Pt  Pt145  1  0.63599636  0.43317513  0.27059116  1
  Pt  Pt146  1  0.72798181  0.43237239  0.63795016  1
  Pt  Pt147  1  0.58860401  0.23891834  0.50070262  1
  Pt  Pt148  1  0.63487759  0.30279825  0.36244897  1
  Pt  Pt149  1  0.77561204  0.49725528  0.50019299  1
  Pt  Pt150  1  0.59490589  0.75980373  0.50082818  1
  Pt  Pt151  1  0.36078041  0.43739020  0.27008967  1
  Pt  Pt152  1  0.64010450  0.69656188  0.36209506  1
  Pt  Pt153  1  0.49962951  0.50080045  0.22437799  1
  Pt  Pt154  1  0.63986350  0.69424941  0.63833045  1
  Pt  Pt155  1  0.35801452  0.30693746  0.36051786  1
  Pt  Pt156  1  0.63839427  0.56505131  0.27098041  1
  Pt  Pt157  1  0.40240381  0.24205079  0.50028619  1
  Pt  Pt158  1  0.63780024  0.56447400  0.73060422  1
  Pt  Pt159  1  0.36233145  0.56704684  0.26982478  1
  Pt  Pt160  1  0.50243616  0.76147777  0.40813656  1
  Pt  Pt161  1  0.26765407  0.43776977  0.36222211  1
  Pt  Pt162  1  0.50281616  0.76136672  0.59334864  1
  Pt  Pt163  1  0.26728010  0.43742937  0.63932958  1
  Pt  Pt164  1  0.36203532  0.56732967  0.73151658  1
  Pt  Pt165  1  0.35756725  0.30589114  0.63977340  1
  Pt  Pt166  1  0.49988885  0.50142966  0.77767439  1
  Pt  Pt167  1  0.36126170  0.43653830  0.73108914  1
  Pt  Pt168  1  0.49558699  0.23979848  0.59327007  1
  Pt  Pt169  1  0.63598201  0.43356198  0.73086367  1
  Pt  Pt170  1  0.22145466  0.50143249  0.50086809  1
  Pt  Pt171  1  0.36405186  0.69886968  0.64127833  1
  Pt  Pt172  1  0.72987961  0.56301536  0.63795621  1
  Pt  Pt173  1  0.49545950  0.24035752  0.40809525  1
  Pt  Pt174  1  0.40909071  0.76159294  0.50057291  1
  Pt  Pt175  1  0.26950642  0.56926927  0.36354014  1
  Pt  Pt176  1  0.72769476  0.43239678  0.36284108  1
  Pt  Pt177  1  0.63440915  0.30317736  0.63901520  1
  Pt  Pt178  1  0.58499928  0.24207130  0.59016706  1
  Pt  Pt179  1  0.67871475  0.37194671  0.68204458  1
  Pt  Pt180  1  0.58474236  0.24211147  0.41143750  1
  Pt  Pt181  1  0.77000198  0.49716682  0.59290391  1
  Pt  Pt182  1  0.59128485  0.75723658  0.41160306  1
  Pt  Pt183  1  0.40730144  0.50166132  0.22935962  1
  Pt  Pt184  1  0.67915805  0.37140262  0.31875330  1
  Pt  Pt185  1  0.76902909  0.49756691  0.40775663  1
  Pt  Pt186  1  0.59191399  0.75636288  0.59001054  1
  Pt  Pt187  1  0.31556666  0.37723003  0.31786852  1
  Pt  Pt188  1  0.68369299  0.62792208  0.31725024  1
  Pt  Pt189  1  0.59175079  0.49970668  0.23049736  1
  Pt  Pt190  1  0.40599412  0.24460552  0.41068537  1
  Pt  Pt191  1  0.68223508  0.62478835  0.68174040  1
  Pt  Pt192  1  0.40607547  0.24390167  0.58968488  1
  Pt  Pt193  1  0.59210510  0.49991177  0.77185301  1
  Pt  Pt194  1  0.31535555  0.37669236  0.68344352  1
  Pt  Pt195  1  0.40702074  0.50173807  0.77195191  1
  Pt  Pt196  1  0.22723019  0.50305844  0.59432966  1
  Pt  Pt197  1  0.31826315  0.62856586  0.68410853  1
  Pt  Pt198  1  0.22732275  0.50315554  0.40736917  1
  Pt  Pt199  1  0.41379320  0.75989727  0.59022873  1
  Pt  Pt200  1  0.31859195  0.62853420  0.31714578  1
  Pt  Pt201  1  0.41354751  0.76008557  0.41085147  1
  Pt  Pt202  1  0.54104759  0.30370834  0.73357595  1
  Pt  Pt203  1  0.50091750  0.63441662  0.77859524  1
  Pt  Pt204  1  0.26273924  0.30686388  0.54487273  1
  Pt  Pt205  1  0.26893162  0.69980095  0.54588354  1
  Pt  Pt206  1  0.22276014  0.63658931  0.50063419  1
  Pt  Pt207  1  0.73436551  0.69400130  0.45585500  1
  Pt  Pt208  1  0.49721741  0.36730827  0.22219388  1
  Pt  Pt209  1  0.73513972  0.69450441  0.54506501  1
  Pt  Pt210  1  0.45194545  0.30512199  0.26677246  1
  Pt  Pt211  1  0.49755611  0.36663101  0.77876249  1
  Pt  Pt212  1  0.45200150  0.30459432  0.73458601  1
  Pt  Pt213  1  0.45678343  0.69724399  0.26721420  1
  Pt  Pt214  1  0.21961071  0.37107327  0.50086269  1
  Pt  Pt215  1  0.45720726  0.69754402  0.73414313  1
  Pt  Pt216  1  0.54592855  0.69645998  0.26738127  1
  Pt  Pt217  1  0.50082079  0.63406190  0.22299709  1
  Pt  Pt218  1  0.73003718  0.30096013  0.45603116  1
  Pt  Pt219  1  0.77454578  0.36340688  0.50078183  1
  Pt  Pt220  1  0.73008334  0.30062602  0.54514022  1
  Pt  Pt221  1  0.77785508  0.63064288  0.50035221  1
  Pt  Pt222  1  0.54066175  0.30378320  0.26704390  1
  Pt  Pt223  1  0.26251272  0.30720563  0.45622363  1
  Pt  Pt224  1  0.54621861  0.69673756  0.73412905  1
  Pt  Pt225  1  0.26905207  0.69961525  0.45556832  1
  Pt  Pt226  1  0.31728478  0.75836367  0.50066853  1
  Pt  Pt227  1  0.22724359  0.63469133  0.41247721  1
  Pt  Pt228  1  0.22710705  0.63502050  0.58877773  1
  Pt  Pt229  1  0.40827807  0.37240415  0.77390441  1
  Pt  Pt230  1  0.31229427  0.24690951  0.50026866  1
  Au  Au231  1  0.59454570  0.63203750  0.78054667  1
  Au  Au232  1  0.50226573  0.76439646  0.31386612  1
  Au  Au233  1  0.40752882  0.63299932  0.22021903  1
  Au  Au234  1  0.21657035  0.37189239  0.40726516  1
  Au  Au235  1  0.50296195  0.76479994  0.68751867  1
  Au  Au236  1  0.21632143  0.37121166  0.59430211  1
  Au  Au237  1  0.40747391  0.63313953  0.78109566  1
  Au  Au238  1  0.77988397  0.62857169  0.40686556  1
  Au  Au239  1  0.59050579  0.36764458  0.22038017  1
  Au  Au240  1  0.68901482  0.76241148  0.50099335  1
  Au  Au241  1  0.40387996  0.37037553  0.22015433  1
  Au  Au242  1  0.77689408  0.36598299  0.40762722  1
  Au  Au243  1  0.68269724  0.23377149  0.50003697  1
  Au  Au244  1  0.77681993  0.36450843  0.59442991  1
  Au  Au245  1  0.78053298  0.62963768  0.59415508  1
  Au  Au246  1  0.49534746  0.23669132  0.31391997  1
  Au  Au247  1  0.59407424  0.63132634  0.22117915  1
  Au  Au248  1  0.49500150  0.23571898  0.68838904  1
  Au  Au249  1  0.59109805  0.36693087  0.78147435  1
