# generated using pymatgen
data_HPt230Au19
_symmetry_space_group_name_H-M   'P 1'
_cell_length_a   30.00000000
_cell_length_b   30.00000000
_cell_length_c   30.00000000
_cell_angle_alpha   90.00000000
_cell_angle_beta   90.00000000
_cell_angle_gamma   90.00000000
_symmetry_Int_Tables_number   1
_chemical_formula_structural   HPt230Au19
_chemical_formula_sum   'H1 Pt230 Au19'
_cell_volume   27000.00000000
_cell_formula_units_Z   1
loop_
 _symmetry_equiv_pos_site_id
 _symmetry_equiv_pos_as_xyz
  1  'x, y, z'
loop_
 _atom_site_type_symbol
 _atom_site_label
 _atom_site_symmetry_multiplicity
 _atom_site_fract_x
 _atom_site_fract_y
 _atom_site_fract_z
 _atom_site_occupancy
  H  H0  1  0.40041097  0.18322119  0.50024497  1
  Pt  Pt1  1  0.49960717  0.50046066  0.50057709  1
  Pt  Pt2  1  0.45363778  0.56668603  0.54700061  1
  Pt  Pt3  1  0.40657294  0.50158723  0.50052734  1
  Pt  Pt4  1  0.54627730  0.56580643  0.45422555  1
  Pt  Pt5  1  0.49871991  0.50051655  0.40768334  1
  Pt  Pt6  1  0.54650846  0.56568589  0.54726730  1
  Pt  Pt7  1  0.45179733  0.43550089  0.45409316  1
  Pt  Pt8  1  0.54469066  0.43416789  0.45408271  1
  Pt  Pt9  1  0.59216699  0.49928495  0.50065566  1
  Pt  Pt10  1  0.54476986  0.43414484  0.54699461  1
  Pt  Pt11  1  0.49893963  0.50059031  0.59355899  1
  Pt  Pt12  1  0.45187556  0.43559187  0.54711617  1
  Pt  Pt13  1  0.45354227  0.56672004  0.45412061  1
  Pt  Pt14  1  0.50081301  0.63198014  0.50074318  1
  Pt  Pt15  1  0.40579832  0.50171614  0.40764358  1
  Pt  Pt16  1  0.40571470  0.50197612  0.59338888  1
  Pt  Pt17  1  0.59175748  0.49962058  0.40758673  1
  Pt  Pt18  1  0.49705263  0.36873494  0.50068964  1
  Pt  Pt19  1  0.59188663  0.49917949  0.59371753  1
  Pt  Pt20  1  0.63794614  0.43190674  0.45507107  1
  Pt  Pt21  1  0.50001406  0.63162920  0.59531189  1
  Pt  Pt22  1  0.35792308  0.43595162  0.45529594  1
  Pt  Pt23  1  0.45369256  0.56846085  0.36095858  1
  Pt  Pt24  1  0.49976253  0.63177975  0.40615984  1
  Pt  Pt25  1  0.54464961  0.56656460  0.64082692  1
  Pt  Pt26  1  0.40319313  0.37135707  0.50099359  1
  Pt  Pt27  1  0.54473858  0.56686195  0.36080066  1
  Pt  Pt28  1  0.45243228  0.43430614  0.64011229  1
  Pt  Pt29  1  0.54353917  0.43338857  0.36048308  1
  Pt  Pt30  1  0.63981714  0.56564309  0.45525729  1
  Pt  Pt31  1  0.49730789  0.36957104  0.40612758  1
  Pt  Pt32  1  0.63987533  0.56555522  0.54596569  1
  Pt  Pt33  1  0.49718220  0.36962015  0.59520808  1
  Pt  Pt34  1  0.54346507  0.43336300  0.64095177  1
  Pt  Pt35  1  0.36008110  0.56915386  0.45497094  1
  Pt  Pt36  1  0.40662537  0.63293520  0.50051438  1
  Pt  Pt37  1  0.36009783  0.56911415  0.54601499  1
  Pt  Pt38  1  0.59531716  0.63040675  0.50067441  1
  Pt  Pt39  1  0.45262039  0.43391020  0.36081557  1
  Pt  Pt40  1  0.45372848  0.56831069  0.64032500  1
  Pt  Pt41  1  0.35793936  0.43603749  0.54600672  1
  Pt  Pt42  1  0.63813846  0.43167015  0.54597665  1
  Pt  Pt43  1  0.59176774  0.36800447  0.50057898  1
  Pt  Pt44  1  0.40409949  0.36970344  0.59371845  1
  Pt  Pt45  1  0.49862665  0.50036238  0.68697605  1
  Pt  Pt46  1  0.40426290  0.36986052  0.40811577  1
  Pt  Pt47  1  0.59340712  0.63078897  0.59369271  1
  Pt  Pt48  1  0.40637538  0.63403315  0.40776370  1
  Pt  Pt49  1  0.31235282  0.50387713  0.50061418  1
  Pt  Pt50  1  0.40663413  0.63384699  0.59342883  1
  Pt  Pt51  1  0.49906149  0.50078216  0.31470047  1
  Pt  Pt52  1  0.59336343  0.63073964  0.40755770  1
  Pt  Pt53  1  0.68505248  0.49812234  0.50066705  1
  Pt  Pt54  1  0.59005012  0.36768863  0.40754511  1
  Pt  Pt55  1  0.59004498  0.36771688  0.59363956  1
  Pt  Pt56  1  0.63481864  0.43282268  0.63757680  1
  Pt  Pt57  1  0.54247493  0.30624482  0.54739949  1
  Pt  Pt58  1  0.40804390  0.50190649  0.68373496  1
  Pt  Pt59  1  0.36072460  0.43659739  0.63737460  1
  Pt  Pt60  1  0.58926279  0.49955660  0.31709180  1
  Pt  Pt61  1  0.63657746  0.56482313  0.36381167  1
  Pt  Pt62  1  0.44929829  0.30654407  0.45498646  1
  Pt  Pt63  1  0.63640082  0.56456253  0.63734623  1
  Pt  Pt64  1  0.44933577  0.30651409  0.54672931  1
  Pt  Pt65  1  0.58901879  0.49941375  0.68422169  1
  Pt  Pt66  1  0.36261979  0.56807215  0.36340632  1
  Pt  Pt67  1  0.45509828  0.69513541  0.45406870  1
  Pt  Pt68  1  0.31530714  0.50272134  0.41000912  1
  Pt  Pt69  1  0.45519064  0.69501439  0.54726204  1
  Pt  Pt70  1  0.31512659  0.50272340  0.59131584  1
  Pt  Pt71  1  0.36247803  0.56810149  0.63775019  1
  Pt  Pt72  1  0.54783912  0.69341306  0.45406495  1
  Pt  Pt73  1  0.40849783  0.50159303  0.31742504  1
  Pt  Pt74  1  0.68230488  0.49813205  0.59092326  1
  Pt  Pt75  1  0.54245969  0.30625783  0.45400393  1
  Pt  Pt76  1  0.54790491  0.69343309  0.54726796  1
  Pt  Pt77  1  0.36115383  0.43630715  0.36382061  1
  Pt  Pt78  1  0.63484640  0.43299824  0.36376625  1
  Pt  Pt79  1  0.68233429  0.49835381  0.41030160  1
  Pt  Pt80  1  0.68350143  0.36640152  0.50071646  1
  Pt  Pt81  1  0.50045642  0.63217435  0.31442679  1
  Pt  Pt82  1  0.50055758  0.63229024  0.68689988  1
  Pt  Pt83  1  0.31175930  0.37160864  0.50064063  1
  Pt  Pt84  1  0.49756776  0.36881605  0.31447492  1
  Pt  Pt85  1  0.68705694  0.62961097  0.50062677  1
  Pt  Pt86  1  0.49731710  0.36912105  0.68649091  1
  Pt  Pt87  1  0.31531135  0.63396392  0.50051890  1
  Pt  Pt88  1  0.35995250  0.70132345  0.55038021  1
  Pt  Pt89  1  0.26323471  0.56851688  0.45564649  1
  Pt  Pt90  1  0.73625925  0.56436978  0.54619493  1
  Pt  Pt91  1  0.54449264  0.30055312  0.35781464  1
  Pt  Pt92  1  0.73379422  0.43054699  0.45534782  1
  Pt  Pt93  1  0.68517222  0.36333763  0.40731519  1
  Pt  Pt94  1  0.63907472  0.29967808  0.54844283  1
  Pt  Pt95  1  0.68529960  0.36316394  0.59401942  1
  Pt  Pt96  1  0.64427272  0.69759847  0.54825303  1
  Pt  Pt97  1  0.40394170  0.36718309  0.31250297  1
  Pt  Pt98  1  0.30853556  0.36902864  0.59486656  1
  Pt  Pt99  1  0.45445431  0.56808127  0.73627334  1
  Pt  Pt100  1  0.54533990  0.56719017  0.26443030  1
  Pt  Pt101  1  0.59385623  0.63400467  0.31244400  1
  Pt  Pt102  1  0.64421882  0.69758079  0.45291661  1
  Pt  Pt103  1  0.45286254  0.43419596  0.26509920  1
  Pt  Pt104  1  0.35515144  0.30445760  0.54940816  1
  Pt  Pt105  1  0.54553054  0.56734885  0.73691445  1
  Pt  Pt106  1  0.54366435  0.43290715  0.26444318  1
  Pt  Pt107  1  0.68906726  0.63282781  0.40741051  1
  Pt  Pt108  1  0.44890046  0.30272349  0.35844828  1
  Pt  Pt109  1  0.68892755  0.63272251  0.59373550  1
  Pt  Pt110  1  0.44882135  0.30151853  0.64282732  1
  Pt  Pt111  1  0.54440368  0.43278685  0.73788907  1
  Pt  Pt112  1  0.40704089  0.63630774  0.31216285  1
  Pt  Pt113  1  0.45365848  0.70028820  0.35802472  1
  Pt  Pt114  1  0.26216655  0.43632339  0.45479972  1
  Pt  Pt115  1  0.45388352  0.70038799  0.64335007  1
  Pt  Pt116  1  0.26205488  0.43631940  0.54661054  1
  Pt  Pt117  1  0.40717638  0.63629044  0.68911782  1
  Pt  Pt118  1  0.54933915  0.69904683  0.64329343  1
  Pt  Pt119  1  0.30856658  0.36904882  0.40626165  1
  Pt  Pt120  1  0.40362423  0.36655849  0.68682200  1
  Pt  Pt121  1  0.45408290  0.43566777  0.73564411  1
  Pt  Pt122  1  0.59068951  0.36471986  0.68920824  1
  Pt  Pt123  1  0.54420135  0.30047338  0.64339570  1
  Pt  Pt124  1  0.35532743  0.30482745  0.45167595  1
  Pt  Pt125  1  0.59375733  0.63400398  0.68856658  1
  Pt  Pt126  1  0.54930384  0.69878379  0.35801482  1
  Pt  Pt127  1  0.45436384  0.56796466  0.26493498  1
  Pt  Pt128  1  0.31376501  0.63850622  0.40551373  1
  Pt  Pt129  1  0.35978283  0.70162698  0.45061994  1
  Pt  Pt130  1  0.73627355  0.56441705  0.45516227  1
  Pt  Pt131  1  0.59077922  0.36450290  0.31249010  1
  Pt  Pt132  1  0.31391275  0.63813787  0.59549436  1
  Pt  Pt133  1  0.26338321  0.56847961  0.54586925  1
  Pt  Pt134  1  0.73424473  0.43031087  0.54635617  1
  Pt  Pt135  1  0.63892936  0.29967872  0.45268214  1
  Pt  Pt136  1  0.31581883  0.50299725  0.31800152  1
  Pt  Pt137  1  0.50216026  0.75923306  0.50071585  1
  Pt  Pt138  1  0.31573786  0.50300545  0.68340385  1
  Pt  Pt139  1  0.68173647  0.49842557  0.31777297  1
  Pt  Pt140  1  0.68159544  0.49824258  0.68338399  1
  Pt  Pt141  1  0.49569896  0.24176712  0.50076157  1
  Pt  Pt142  1  0.36371112  0.69917971  0.35988857  1
  Pt  Pt143  1  0.26898436  0.56955165  0.63797360  1
  Pt  Pt144  1  0.73018734  0.56295832  0.36287269  1
  Pt  Pt145  1  0.63603406  0.43350305  0.27047866  1
  Pt  Pt146  1  0.72817882  0.43216298  0.63844497  1
  Pt  Pt147  1  0.58843860  0.23920515  0.50058413  1
  Pt  Pt148  1  0.63496642  0.30285692  0.36225088  1
  Pt  Pt149  1  0.77589783  0.49669716  0.50065961  1
  Pt  Pt150  1  0.59493198  0.75941754  0.50051769  1
  Pt  Pt151  1  0.36056228  0.43712453  0.27020310  1
  Pt  Pt152  1  0.63985133  0.69426210  0.36243765  1
  Pt  Pt153  1  0.49907678  0.50056742  0.22382048  1
  Pt  Pt154  1  0.63983568  0.69442398  0.63867857  1
  Pt  Pt155  1  0.35799118  0.30694067  0.36133400  1
  Pt  Pt156  1  0.63753826  0.56420173  0.27044947  1
  Pt  Pt157  1  0.40311661  0.23505579  0.50032159  1
  Pt  Pt158  1  0.63768499  0.56424728  0.73063107  1
  Pt  Pt159  1  0.36179868  0.56709961  0.26983949  1
  Pt  Pt160  1  0.50275911  0.76118841  0.40814498  1
  Pt  Pt161  1  0.26755622  0.43788941  0.36198940  1
  Pt  Pt162  1  0.50271016  0.76128025  0.59317388  1
  Pt  Pt163  1  0.26725799  0.43777648  0.63934235  1
  Pt  Pt164  1  0.36174781  0.56730871  0.73152643  1
  Pt  Pt165  1  0.35742378  0.30602502  0.63919302  1
  Pt  Pt166  1  0.49974863  0.50131253  0.77790825  1
  Pt  Pt167  1  0.36111403  0.43667558  0.73112310  1
  Pt  Pt168  1  0.49555279  0.23972526  0.59331184  1
  Pt  Pt169  1  0.63608979  0.43358652  0.73102103  1
  Pt  Pt170  1  0.22107820  0.50184976  0.50075364  1
  Pt  Pt171  1  0.36386019  0.69886518  0.64121174  1
  Pt  Pt172  1  0.72994788  0.56286196  0.63843107  1
  Pt  Pt173  1  0.49546986  0.24005070  0.40810282  1
  Pt  Pt174  1  0.40917880  0.76159343  0.50057018  1
  Pt  Pt175  1  0.26929682  0.56951162  0.36339698  1
  Pt  Pt176  1  0.72807900  0.43236126  0.36280649  1
  Pt  Pt177  1  0.63457661  0.30308921  0.63902873  1
  Pt  Pt178  1  0.58484073  0.24234421  0.58982628  1
  Pt  Pt179  1  0.67903142  0.37185233  0.68244295  1
  Pt  Pt180  1  0.58472947  0.24224559  0.41137802  1
  Pt  Pt181  1  0.77003954  0.49697093  0.59319404  1
  Pt  Pt182  1  0.59178724  0.75625474  0.41119008  1
  Pt  Pt183  1  0.40682029  0.50162600  0.22944129  1
  Pt  Pt184  1  0.67912861  0.37186494  0.31876511  1
  Pt  Pt185  1  0.77008964  0.49695565  0.40820140  1
  Pt  Pt186  1  0.59175755  0.75637512  0.58986937  1
  Pt  Pt187  1  0.31533759  0.37700781  0.31784379  1
  Pt  Pt188  1  0.68223981  0.62464941  0.31906121  1
  Pt  Pt189  1  0.59131253  0.49942028  0.22949659  1
  Pt  Pt190  1  0.40581463  0.24444843  0.41066929  1
  Pt  Pt191  1  0.68208875  0.62467708  0.68206207  1
  Pt  Pt192  1  0.40585374  0.24382562  0.58988899  1
  Pt  Pt193  1  0.59195346  0.49984149  0.77187250  1
  Pt  Pt194  1  0.31513345  0.37679364  0.68338500  1
  Pt  Pt195  1  0.40686726  0.50179568  0.77196954  1
  Pt  Pt196  1  0.22709056  0.50330974  0.59446169  1
  Pt  Pt197  1  0.31832267  0.62881345  0.68383665  1
  Pt  Pt198  1  0.22725774  0.50331041  0.40702563  1
  Pt  Pt199  1  0.41367067  0.75984044  0.59028831  1
  Pt  Pt200  1  0.31830870  0.62884902  0.31731726  1
  Pt  Pt201  1  0.41365590  0.76002751  0.41092242  1
  Pt  Pt202  1  0.54092133  0.30403998  0.73325456  1
  Pt  Pt203  1  0.50072147  0.63430804  0.77839207  1
  Pt  Pt204  1  0.26424854  0.30681807  0.54513592  1
  Pt  Pt205  1  0.26882479  0.69981718  0.54591383  1
  Pt  Pt206  1  0.22267592  0.63665470  0.50071323  1
  Pt  Pt207  1  0.73496808  0.69419598  0.45628992  1
  Pt  Pt208  1  0.49714637  0.36700932  0.22261832  1
  Pt  Pt209  1  0.73506329  0.69424908  0.54526087  1
  Pt  Pt210  1  0.45182598  0.30475273  0.26722218  1
  Pt  Pt211  1  0.49724618  0.36669047  0.77869914  1
  Pt  Pt212  1  0.45181861  0.30484472  0.73430945  1
  Pt  Pt213  1  0.45672410  0.69739032  0.26726714  1
  Pt  Pt214  1  0.22039253  0.37044382  0.50056459  1
  Pt  Pt215  1  0.45695710  0.69752804  0.73406473  1
  Pt  Pt216  1  0.54561114  0.69644265  0.26722718  1
  Pt  Pt217  1  0.50038653  0.63419551  0.22270542  1
  Pt  Pt218  1  0.72991072  0.30124435  0.45621397  1
  Pt  Pt219  1  0.77491331  0.36334435  0.50088747  1
  Pt  Pt220  1  0.73006225  0.30087066  0.54530137  1
  Pt  Pt221  1  0.77823846  0.63065318  0.50074363  1
  Pt  Pt222  1  0.54062360  0.30365107  0.26732134  1
  Pt  Pt223  1  0.26416761  0.30695703  0.45588318  1
  Pt  Pt224  1  0.54591177  0.69667813  0.73405530  1
  Pt  Pt225  1  0.26875216  0.69977021  0.45566465  1
  Pt  Pt226  1  0.31723246  0.75847136  0.50076441  1
  Pt  Pt227  1  0.22719769  0.63475936  0.41244260  1
  Pt  Pt228  1  0.22720444  0.63483838  0.58889274  1
  Pt  Pt229  1  0.40791627  0.37245565  0.77367250  1
  Pt  Pt230  1  0.31355128  0.24663451  0.50020472  1
  Au  Au231  1  0.59439319  0.63172674  0.78028796  1
  Au  Au232  1  0.50227794  0.76438141  0.31419491  1
  Au  Au233  1  0.40713028  0.63294104  0.22045007  1
  Au  Au234  1  0.21705810  0.37189070  0.40757460  1
  Au  Au235  1  0.50269772  0.76480160  0.68724694  1
  Au  Au236  1  0.21687619  0.37152337  0.59338394  1
  Au  Au237  1  0.40734046  0.63287269  0.78075929  1
  Au  Au238  1  0.78068091  0.62899618  0.40714922  1
  Au  Au239  1  0.59061944  0.36765756  0.22075634  1
  Au  Au240  1  0.68891588  0.76214504  0.50084640  1
  Au  Au241  1  0.40384049  0.37023407  0.22080916  1
  Au  Au242  1  0.77695176  0.36575596  0.40750523  1
  Au  Au243  1  0.68220939  0.23436535  0.50053436  1
  Au  Au244  1  0.77704335  0.36475913  0.59455790  1
  Au  Au245  1  0.78049385  0.62899847  0.59430532  1
  Au  Au246  1  0.49487712  0.23673334  0.31430887  1
  Au  Au247  1  0.59390466  0.63143005  0.22090098  1
  Au  Au248  1  0.49499302  0.23647349  0.68775238  1
  Au  Au249  1  0.59083222  0.36723432  0.78131997  1
