# generated using pymatgen
data_Pt230Au19
_symmetry_space_group_name_H-M   'P 1'
_cell_length_a   30.00000000
_cell_length_b   30.00000000
_cell_length_c   30.00000000
_cell_angle_alpha   90.00000000
_cell_angle_beta   90.00000000
_cell_angle_gamma   90.00000000
_symmetry_Int_Tables_number   1
_chemical_formula_structural   Pt230Au19
_chemical_formula_sum   'Pt230 Au19'
_cell_volume   27000.00000000
_cell_formula_units_Z   1
loop_
 _symmetry_equiv_pos_site_id
 _symmetry_equiv_pos_as_xyz
  1  'x, y, z'
loop_
 _atom_site_type_symbol
 _atom_site_label
 _atom_site_symmetry_multiplicity
 _atom_site_fract_x
 _atom_site_fract_y
 _atom_site_fract_z
 _atom_site_occupancy
  Pt  Pt0  1  0.49944795  0.50042719  0.50058087  1
  Pt  Pt1  1  0.45362777  0.56667951  0.54704449  1
  Pt  Pt2  1  0.40648227  0.50172488  0.50053653  1
  Pt  Pt3  1  0.54621412  0.56579341  0.45425254  1
  Pt  Pt4  1  0.49856900  0.50048881  0.40762950  1
  Pt  Pt5  1  0.54645024  0.56565044  0.54727078  1
  Pt  Pt6  1  0.45166824  0.43534658  0.45414646  1
  Pt  Pt7  1  0.54469623  0.43426335  0.45411988  1
  Pt  Pt8  1  0.59216069  0.49936883  0.50063714  1
  Pt  Pt9  1  0.54477022  0.43427448  0.54698080  1
  Pt  Pt10  1  0.49876702  0.50057863  0.59361686  1
  Pt  Pt11  1  0.45175308  0.43543538  0.54704638  1
  Pt  Pt12  1  0.45354092  0.56667698  0.45409945  1
  Pt  Pt13  1  0.50068280  0.63195908  0.50076455  1
  Pt  Pt14  1  0.40575646  0.50159138  0.40772708  1
  Pt  Pt15  1  0.40566505  0.50189838  0.59330885  1
  Pt  Pt16  1  0.59162111  0.49963196  0.40751071  1
  Pt  Pt17  1  0.49771890  0.36899645  0.50073603  1
  Pt  Pt18  1  0.59175062  0.49920946  0.59377370  1
  Pt  Pt19  1  0.63810661  0.43205991  0.45504451  1
  Pt  Pt20  1  0.49995866  0.63166584  0.59533624  1
  Pt  Pt21  1  0.35785866  0.43564154  0.45539777  1
  Pt  Pt22  1  0.45362775  0.56848282  0.36096459  1
  Pt  Pt23  1  0.49970751  0.63180849  0.40616112  1
  Pt  Pt24  1  0.54457990  0.56661464  0.64082651  1
  Pt  Pt25  1  0.40317186  0.37092699  0.50103142  1
  Pt  Pt26  1  0.54471253  0.56694961  0.36080784  1
  Pt  Pt27  1  0.45225416  0.43423266  0.64000088  1
  Pt  Pt28  1  0.54326063  0.43305168  0.36071769  1
  Pt  Pt29  1  0.63979462  0.56561361  0.45522593  1
  Pt  Pt30  1  0.49727472  0.36926293  0.40620400  1
  Pt  Pt31  1  0.63987546  0.56552565  0.54601050  1
  Pt  Pt32  1  0.49703701  0.36923733  0.59514977  1
  Pt  Pt33  1  0.54319208  0.43305442  0.64068987  1
  Pt  Pt34  1  0.36002179  0.56913867  0.45496163  1
  Pt  Pt35  1  0.40658600  0.63290465  0.50052980  1
  Pt  Pt36  1  0.36000993  0.56911845  0.54600088  1
  Pt  Pt37  1  0.59526950  0.63037362  0.50067709  1
  Pt  Pt38  1  0.45239111  0.43374279  0.36086144  1
  Pt  Pt39  1  0.45367642  0.56834580  0.64032808  1
  Pt  Pt40  1  0.35792863  0.43580399  0.54591107  1
  Pt  Pt41  1  0.63827052  0.43179793  0.54599999  1
  Pt  Pt42  1  0.59219956  0.36820154  0.50060112  1
  Pt  Pt43  1  0.40385974  0.36961956  0.59392054  1
  Pt  Pt44  1  0.49860406  0.50028241  0.68680271  1
  Pt  Pt45  1  0.40395123  0.36977996  0.40788224  1
  Pt  Pt46  1  0.59339034  0.63083052  0.59368722  1
  Pt  Pt47  1  0.40634671  0.63396298  0.40780581  1
  Pt  Pt48  1  0.31246157  0.50380717  0.50062524  1
  Pt  Pt49  1  0.40663145  0.63380083  0.59341121  1
  Pt  Pt50  1  0.49902366  0.50066725  0.31485432  1
  Pt  Pt51  1  0.59335113  0.63079192  0.40757031  1
  Pt  Pt52  1  0.68520308  0.49812817  0.50070326  1
  Pt  Pt53  1  0.59019788  0.36773239  0.40753500  1
  Pt  Pt54  1  0.59011554  0.36777872  0.59363631  1
  Pt  Pt55  1  0.63463546  0.43288079  0.63756712  1
  Pt  Pt56  1  0.54320442  0.30619956  0.54726544  1
  Pt  Pt57  1  0.40811417  0.50193869  0.68375887  1
  Pt  Pt58  1  0.36071385  0.43660813  0.63732389  1
  Pt  Pt59  1  0.58910726  0.49954526  0.31714014  1
  Pt  Pt60  1  0.63646394  0.56484404  0.36372324  1
  Pt  Pt61  1  0.45031372  0.30742753  0.45420981  1
  Pt  Pt62  1  0.63629603  0.56459227  0.63745020  1
  Pt  Pt63  1  0.45023074  0.30730347  0.54733870  1
  Pt  Pt64  1  0.58887414  0.49938134  0.68418785  1
  Pt  Pt65  1  0.36258866  0.56798653  0.36338364  1
  Pt  Pt66  1  0.45505494  0.69517608  0.45405081  1
  Pt  Pt67  1  0.31526417  0.50264172  0.41006442  1
  Pt  Pt68  1  0.45514731  0.69506157  0.54728608  1
  Pt  Pt69  1  0.31511000  0.50268147  0.59125956  1
  Pt  Pt70  1  0.36242597  0.56805333  0.63775972  1
  Pt  Pt71  1  0.54780227  0.69342076  0.45409273  1
  Pt  Pt72  1  0.40856087  0.50155408  0.31741296  1
  Pt  Pt73  1  0.68220859  0.49810711  0.59095928  1
  Pt  Pt74  1  0.54324775  0.30626787  0.45412737  1
  Pt  Pt75  1  0.54787518  0.69344382  0.54727154  1
  Pt  Pt76  1  0.36109803  0.43622002  0.36392825  1
  Pt  Pt77  1  0.63471170  0.43307738  0.36377315  1
  Pt  Pt78  1  0.68221484  0.49837597  0.41027435  1
  Pt  Pt79  1  0.68350027  0.36641856  0.50071674  1
  Pt  Pt80  1  0.50050588  0.63219737  0.31448864  1
  Pt  Pt81  1  0.50057689  0.63229823  0.68682539  1
  Pt  Pt82  1  0.31153531  0.37140409  0.50067837  1
  Pt  Pt83  1  0.49751834  0.36872185  0.31450265  1
  Pt  Pt84  1  0.68705357  0.62955969  0.50060460  1
  Pt  Pt85  1  0.49728672  0.36903085  0.68639805  1
  Pt  Pt86  1  0.31537565  0.63392424  0.50051887  1
  Pt  Pt87  1  0.35992259  0.70136096  0.55041097  1
  Pt  Pt88  1  0.26319133  0.56852517  0.45568493  1
  Pt  Pt89  1  0.73625155  0.56438237  0.54617931  1
  Pt  Pt90  1  0.54451996  0.30040907  0.35772184  1
  Pt  Pt91  1  0.73396154  0.43060549  0.45536960  1
  Pt  Pt92  1  0.68518902  0.36333482  0.40737771  1
  Pt  Pt93  1  0.63929565  0.29943489  0.54841870  1
  Pt  Pt94  1  0.68529334  0.36314988  0.59391744  1
  Pt  Pt95  1  0.64427386  0.69756658  0.54825386  1
  Pt  Pt96  1  0.40396459  0.36705063  0.31214880  1
  Pt  Pt97  1  0.30840270  0.36824134  0.59485600  1
  Pt  Pt98  1  0.45449595  0.56814577  0.73627484  1
  Pt  Pt99  1  0.54542376  0.56722051  0.26445567  1
  Pt  Pt100  1  0.59391524  0.63416546  0.31236733  1
  Pt  Pt101  1  0.64422342  0.69759370  0.45293545  1
  Pt  Pt102  1  0.45282328  0.43408934  0.26508004  1
  Pt  Pt103  1  0.35429787  0.30437653  0.55002654  1
  Pt  Pt104  1  0.54559605  0.56738232  0.73686181  1
  Pt  Pt105  1  0.54364449  0.43275686  0.26460365  1
  Pt  Pt106  1  0.68895759  0.63283665  0.40739748  1
  Pt  Pt107  1  0.44877048  0.30219039  0.35778141  1
  Pt  Pt108  1  0.68888671  0.63272290  0.59374022  1
  Pt  Pt109  1  0.44863053  0.30088080  0.64348869  1
  Pt  Pt110  1  0.54442390  0.43270737  0.73760316  1
  Pt  Pt111  1  0.40702223  0.63633851  0.31215626  1
  Pt  Pt112  1  0.45362437  0.70038643  0.35802743  1
  Pt  Pt113  1  0.26229008  0.43614414  0.45477643  1
  Pt  Pt114  1  0.45384312  0.70059215  0.64341418  1
  Pt  Pt115  1  0.26216618  0.43606842  0.54673366  1
  Pt  Pt116  1  0.40716020  0.63635180  0.68908526  1
  Pt  Pt117  1  0.54931393  0.69907597  0.64326798  1
  Pt  Pt118  1  0.30827074  0.36813533  0.40626975  1
  Pt  Pt119  1  0.40378971  0.36658275  0.68695643  1
  Pt  Pt120  1  0.45407880  0.43560235  0.73565633  1
  Pt  Pt121  1  0.59059066  0.36461037  0.68925775  1
  Pt  Pt122  1  0.54416530  0.30037393  0.64342323  1
  Pt  Pt123  1  0.35454807  0.30489130  0.45115738  1
  Pt  Pt124  1  0.59379195  0.63411827  0.68859712  1
  Pt  Pt125  1  0.54928903  0.69883997  0.35799517  1
  Pt  Pt126  1  0.45443077  0.56800204  0.26492842  1
  Pt  Pt127  1  0.31377871  0.63852678  0.40548120  1
  Pt  Pt128  1  0.35978010  0.70163669  0.45062407  1
  Pt  Pt129  1  0.73626129  0.56443702  0.45518543  1
  Pt  Pt130  1  0.59071970  0.36438309  0.31239122  1
  Pt  Pt131  1  0.31392506  0.63815914  0.59552963  1
  Pt  Pt132  1  0.26324329  0.56850278  0.54584960  1
  Pt  Pt133  1  0.73450441  0.43033637  0.54634321  1
  Pt  Pt134  1  0.63914993  0.29948658  0.45270149  1
  Pt  Pt135  1  0.31585196  0.50286861  0.31798504  1
  Pt  Pt136  1  0.50214379  0.75923106  0.50073133  1
  Pt  Pt137  1  0.31578788  0.50290855  0.68342108  1
  Pt  Pt138  1  0.68159327  0.49836812  0.31768648  1
  Pt  Pt139  1  0.68147643  0.49814635  0.68345003  1
  Pt  Pt140  1  0.49562642  0.24193594  0.50069562  1
  Pt  Pt141  1  0.36374676  0.69918216  0.35988058  1
  Pt  Pt142  1  0.26900920  0.56948090  0.63788210  1
  Pt  Pt143  1  0.73003803  0.56292807  0.36291119  1
  Pt  Pt144  1  0.63597029  0.43336347  0.27047261  1
  Pt  Pt145  1  0.72811354  0.43212841  0.63835548  1
  Pt  Pt146  1  0.58852345  0.23891838  0.50057162  1
  Pt  Pt147  1  0.63500760  0.30283999  0.36225045  1
  Pt  Pt148  1  0.77604188  0.49677191  0.50066989  1
  Pt  Pt149  1  0.59493766  0.75939050  0.50052624  1
  Pt  Pt150  1  0.36052483  0.43709124  0.27020703  1
  Pt  Pt151  1  0.63986038  0.69438979  0.36243582  1
  Pt  Pt152  1  0.49907547  0.50050764  0.22398479  1
  Pt  Pt153  1  0.63983906  0.69451011  0.63866563  1
  Pt  Pt154  1  0.35811935  0.30677942  0.36074869  1
  Pt  Pt155  1  0.63759948  0.56430589  0.27039762  1
  Pt  Pt156  1  0.40261606  0.24191265  0.50030393  1
  Pt  Pt157  1  0.63774576  0.56433577  0.73065468  1
  Pt  Pt158  1  0.36191046  0.56710070  0.26988614  1
  Pt  Pt159  1  0.50276901  0.76124154  0.40817325  1
  Pt  Pt160  1  0.26763189  0.43769517  0.36215644  1
  Pt  Pt161  1  0.50270907  0.76131091  0.59316579  1
  Pt  Pt162  1  0.26739002  0.43755072  0.63922737  1
  Pt  Pt163  1  0.36187281  0.56733660  0.73148944  1
  Pt  Pt164  1  0.35760947  0.30583843  0.63979982  1
  Pt  Pt165  1  0.49974230  0.50129998  0.77769281  1
  Pt  Pt166  1  0.36117542  0.43662056  0.73114042  1
  Pt  Pt167  1  0.49567436  0.23987394  0.59316912  1
  Pt  Pt168  1  0.63605814  0.43345857  0.73099856  1
  Pt  Pt169  1  0.22125270  0.50166336  0.50079442  1
  Pt  Pt170  1  0.36391581  0.69883766  0.64120897  1
  Pt  Pt171  1  0.72978527  0.56285268  0.63841133  1
  Pt  Pt172  1  0.49564284  0.24019022  0.40816575  1
  Pt  Pt173  1  0.40916649  0.76161868  0.50058633  1
  Pt  Pt174  1  0.26935189  0.56938673  0.36349324  1
  Pt  Pt175  1  0.72799621  0.43242147  0.36286511  1
  Pt  Pt176  1  0.63457744  0.30309869  0.63901286  1
  Pt  Pt177  1  0.58502123  0.24219263  0.58996115  1
  Pt  Pt178  1  0.67888597  0.37180831  0.68232384  1
  Pt  Pt179  1  0.58494549  0.24207449  0.41129601  1
  Pt  Pt180  1  0.77000331  0.49700146  0.59327498  1
  Pt  Pt181  1  0.59173822  0.75629839  0.41122679  1
  Pt  Pt182  1  0.40682731  0.50157740  0.22943940  1
  Pt  Pt183  1  0.67901880  0.37188023  0.31886313  1
  Pt  Pt184  1  0.77008127  0.49700935  0.40818755  1
  Pt  Pt185  1  0.59173118  0.75640072  0.58987153  1
  Pt  Pt186  1  0.31550384  0.37688902  0.31793950  1
  Pt  Pt187  1  0.68228742  0.62470302  0.31901030  1
  Pt  Pt188  1  0.59136099  0.49934269  0.22960240  1
  Pt  Pt189  1  0.40617768  0.24466818  0.41088406  1
  Pt  Pt190  1  0.68211942  0.62471580  0.68212563  1
  Pt  Pt191  1  0.40623353  0.24391702  0.58965828  1
  Pt  Pt192  1  0.59202429  0.49978637  0.77175813  1
  Pt  Pt193  1  0.31536846  0.37670735  0.68339258  1
  Pt  Pt194  1  0.40686801  0.50174766  0.77198985  1
  Pt  Pt195  1  0.22720657  0.50313576  0.59432837  1
  Pt  Pt196  1  0.31829641  0.62867617  0.68386759  1
  Pt  Pt197  1  0.22731716  0.50318493  0.40722059  1
  Pt  Pt198  1  0.41371540  0.75991014  0.59022842  1
  Pt  Pt199  1  0.31828879  0.62874924  0.31729346  1
  Pt  Pt200  1  0.41369020  0.76012146  0.41099512  1
  Pt  Pt201  1  0.54103882  0.30393258  0.73336848  1
  Pt  Pt202  1  0.50084932  0.63427237  0.77838176  1
  Pt  Pt203  1  0.26297291  0.30697832  0.54482612  1
  Pt  Pt204  1  0.26885437  0.69984373  0.54590315  1
  Pt  Pt205  1  0.22267604  0.63669539  0.50070827  1
  Pt  Pt206  1  0.73495897  0.69419031  0.45630451  1
  Pt  Pt207  1  0.49713429  0.36705185  0.22248010  1
  Pt  Pt208  1  0.73507350  0.69418422  0.54529810  1
  Pt  Pt209  1  0.45191489  0.30466761  0.26694945  1
  Pt  Pt210  1  0.49731932  0.36670738  0.77872274  1
  Pt  Pt211  1  0.45202631  0.30467421  0.73449455  1
  Pt  Pt212  1  0.45670254  0.69734130  0.26729286  1
  Pt  Pt213  1  0.21972276  0.37116924  0.50070085  1
  Pt  Pt214  1  0.45701077  0.69747914  0.73403234  1
  Pt  Pt215  1  0.54562368  0.69651755  0.26717857  1
  Pt  Pt216  1  0.50048260  0.63419994  0.22270955  1
  Pt  Pt217  1  0.72988198  0.30102310  0.45614012  1
  Pt  Pt218  1  0.77465973  0.36320764  0.50085250  1
  Pt  Pt219  1  0.72999988  0.30054707  0.54529343  1
  Pt  Pt220  1  0.77827740  0.63061218  0.50076991  1
  Pt  Pt221  1  0.54067451  0.30361807  0.26715340  1
  Pt  Pt222  1  0.26279238  0.30715741  0.45623459  1
  Pt  Pt223  1  0.54596413  0.69667466  0.73412337  1
  Pt  Pt224  1  0.26880845  0.69974716  0.45567020  1
  Pt  Pt225  1  0.31724538  0.75848004  0.50075859  1
  Pt  Pt226  1  0.22721178  0.63475608  0.41243214  1
  Pt  Pt227  1  0.22719283  0.63489663  0.58891965  1
  Pt  Pt228  1  0.40798972  0.37233178  0.77381848  1
  Pt  Pt229  1  0.31249890  0.24677166  0.50010259  1
  Au  Au230  1  0.59460475  0.63164483  0.78028479  1
  Au  Au231  1  0.50226868  0.76445247  0.31411502  1
  Au  Au232  1  0.40716040  0.63295286  0.22039538  1
  Au  Au233  1  0.21676432  0.37195135  0.40735728  1
  Au  Au234  1  0.50288021  0.76487423  0.68738030  1
  Au  Au235  1  0.21659715  0.37137436  0.59401929  1
  Au  Au236  1  0.40736172  0.63292069  0.78078521  1
  Au  Au237  1  0.78051864  0.62907021  0.40720417  1
  Au  Au238  1  0.59059684  0.36761030  0.22066217  1
  Au  Au239  1  0.68898123  0.76213743  0.50091000  1
  Au  Au240  1  0.40378341  0.37026599  0.22051436  1
  Au  Au241  1  0.77691620  0.36572424  0.40751056  1
  Au  Au242  1  0.68225578  0.23402325  0.50040124  1
  Au  Au243  1  0.77689964  0.36454101  0.59448439  1
  Au  Au244  1  0.78049962  0.62890602  0.59437412  1
  Au  Au245  1  0.49529060  0.23653030  0.31404760  1
  Au  Au246  1  0.59401123  0.63150078  0.22079822  1
  Au  Au247  1  0.49560089  0.23608925  0.68795930  1
  Au  Au248  1  0.59080508  0.36724427  0.78136945  1
