data_con4.77_50
_audit_creation_date              2024-05-16
_audit_creation_method            'Materials Studio'
_symmetry_space_group_name_H-M    'P1'
_symmetry_Int_Tables_number       1
_symmetry_cell_setting            triclinic
loop_
_symmetry_equiv_pos_as_xyz
  x,y,z
_cell_length_a                    30.0000
_cell_length_b                    30.0000
_cell_length_c                    30.0000
_cell_angle_alpha                 90.0000
_cell_angle_beta                  90.0000
_cell_angle_gamma                 90.0000
loop_
_atom_site_label
_atom_site_type_symbol
_atom_site_fract_x
_atom_site_fract_y
_atom_site_fract_z
_atom_site_U_iso_or_equiv
_atom_site_adp_type
_atom_site_occupancy
Pt1    Pt    0.50000   0.50000   0.50002   0.00000  Uiso   1.00
Pt2    Pt    0.50000   0.56727   0.56572   0.00000  Uiso   1.00
Pt3    Pt    0.50000   0.43273   0.56572   0.00000  Uiso   1.00
Pt4    Pt    0.50000   0.43273   0.43369   0.00000  Uiso   1.00
Pt5    Pt    0.50000   0.56727   0.43369   0.00000  Uiso   1.00
Pt6    Pt    0.56758   0.50000   0.43371   0.00000  Uiso   1.00
Pt7    Pt    0.43242   0.50000   0.43371   0.00000  Uiso   1.00
Pt8    Pt    0.43242   0.50000   0.56654   0.00000  Uiso   1.00
Pt9    Pt    0.56758   0.50000   0.56654   0.00000  Uiso   1.00
Pt10   Pt    0.43242   0.43273   0.49993   0.00000  Uiso   1.00
Pt11   Pt    0.56758   0.43273   0.49993   0.00000  Uiso   1.00
Pt12   Pt    0.43242   0.56727   0.49993   0.00000  Uiso   1.00
Pt13   Pt    0.56758   0.56727   0.49993   0.00000  Uiso   1.00
Pt14   Pt    0.50000   0.50000   0.63405   0.00000  Uiso   1.00
Pt15   Pt    0.50000   0.50000   0.36593   0.00000  Uiso   1.00
Pt16   Pt    0.50000   0.63455   0.50002   0.00000  Uiso   1.00
Pt17   Pt    0.50000   0.36545   0.50002   0.00000  Uiso   1.00
Pt18   Pt    0.63515   0.50000   0.50002   0.00000  Uiso   1.00
Pt19   Pt    0.36485   0.50000   0.50002   0.00000  Uiso   1.00
Pt20   Pt    0.56758   0.43273   0.36595   0.00000  Uiso   1.00
Pt21   Pt    0.43242   0.43273   0.36595   0.00000  Uiso   1.00
Pt22   Pt    0.56758   0.56727   0.36595   0.00000  Uiso   1.00
Pt23   Pt    0.43242   0.56727   0.36595   0.00000  Uiso   1.00
Pt24   Pt    0.56758   0.36545   0.43371   0.00000  Uiso   1.00
Pt25   Pt    0.43242   0.36545   0.43371   0.00000  Uiso   1.00
Pt26   Pt    0.56758   0.63455   0.43371   0.00000  Uiso   1.00
Pt27   Pt    0.43242   0.63455   0.43371   0.00000  Uiso   1.00
Pt28   Pt    0.43242   0.56727   0.63412   0.00000  Uiso   1.00
Pt29   Pt    0.56758   0.56727   0.63412   0.00000  Uiso   1.00
Pt30   Pt    0.43242   0.43273   0.63412   0.00000  Uiso   1.00
Pt31   Pt    0.56758   0.43273   0.63412   0.00000  Uiso   1.00
Pt32   Pt    0.43242   0.63455   0.56654   0.00000  Uiso   1.00
Pt33   Pt    0.56758   0.63455   0.56654   0.00000  Uiso   1.00
Pt34   Pt    0.43242   0.36545   0.56654   0.00000  Uiso   1.00
Pt35   Pt    0.56758   0.36545   0.56654   0.00000  Uiso   1.00
Pt36   Pt    0.36485   0.56727   0.56572   0.00000  Uiso   1.00
Pt37   Pt    0.63515   0.56727   0.56572   0.00000  Uiso   1.00
Pt38   Pt    0.36485   0.43273   0.56572   0.00000  Uiso   1.00
Pt39   Pt    0.63515   0.43273   0.56572   0.00000  Uiso   1.00
Pt40   Pt    0.63515   0.43273   0.43370   0.00000  Uiso   1.00
Pt41   Pt    0.36485   0.43273   0.43369   0.00000  Uiso   1.00
Pt42   Pt    0.63515   0.56727   0.43369   0.00000  Uiso   1.00
Pt43   Pt    0.36485   0.56727   0.43369   0.00000  Uiso   1.00
Pt44   Pt    0.50000   0.63455   0.63405   0.00000  Uiso   1.00
Pt45   Pt    0.50000   0.36545   0.63405   0.00000  Uiso   1.00
Pt46   Pt    0.50000   0.36545   0.36593   0.00000  Uiso   1.00
Pt47   Pt    0.50000   0.63455   0.36593   0.00000  Uiso   1.00
Pt48   Pt    0.36485   0.50000   0.63405   0.00000  Uiso   1.00
Pt49   Pt    0.63515   0.50000   0.63405   0.00000  Uiso   1.00
Pt50   Pt    0.63515   0.50000   0.36593   0.00000  Uiso   1.00
Pt51   Pt    0.36485   0.50000   0.36593   0.00000  Uiso   1.00
Pt52   Pt    0.63515   0.63455   0.50002   0.00000  Uiso   1.00
Pt53   Pt    0.36485   0.63455   0.50002   0.00000  Uiso   1.00
Pt54   Pt    0.63515   0.36545   0.50002   0.00000  Uiso   1.00
Pt55   Pt    0.36485   0.36545   0.50002   0.00000  Uiso   1.00
Pt56   Pt    0.50000   0.70182   0.56572   0.00000  Uiso   1.00
Pt57   Pt    0.50000   0.29818   0.56572   0.00000  Uiso   1.00
Pt58   Pt    0.50000   0.29818   0.43370   0.00000  Uiso   1.00
Pt59   Pt    0.50000   0.70182   0.43369   0.00000  Uiso   1.00
Pt60   Pt    0.56758   0.50000   0.29853   0.00000  Uiso   1.00
Pt61   Pt    0.43242   0.50000   0.29853   0.00000  Uiso   1.00
Pt62   Pt    0.50000   0.56727   0.70171   0.00000  Uiso   1.00
Pt63   Pt    0.50000   0.43273   0.70171   0.00000  Uiso   1.00
Pt64   Pt    0.43242   0.29818   0.49993   0.00000  Uiso   1.00
Pt65   Pt    0.56758   0.29818   0.49993   0.00000  Uiso   1.00
Pt66   Pt    0.43242   0.70182   0.49993   0.00000  Uiso   1.00
Pt67   Pt    0.56758   0.70182   0.49993   0.00000  Uiso   1.00
Pt68   Pt    0.50000   0.43273   0.29798   0.00000  Uiso   1.00
Pt69   Pt    0.50000   0.56727   0.29798   0.00000  Uiso   1.00
Pt70   Pt    0.43242   0.50000   0.70226   0.00000  Uiso   1.00
Pt71   Pt    0.56758   0.50000   0.70226   0.00000  Uiso   1.00
Pt72   Pt    0.70273   0.50000   0.43371   0.00000  Uiso   1.00
Pt73   Pt    0.29727   0.50000   0.43371   0.00000  Uiso   1.00
Pt74   Pt    0.29727   0.50000   0.56654   0.00000  Uiso   1.00
Pt75   Pt    0.70273   0.50000   0.56654   0.00000  Uiso   1.00
Pt76   Pt    0.29727   0.43273   0.49993   0.00000  Uiso   1.00
Pt77   Pt    0.29727   0.56727   0.49993   0.00000  Uiso   1.00
Pt78   Pt    0.70273   0.43273   0.49993   0.00000  Uiso   1.00
Pt79   Pt    0.70273   0.56727   0.49993   0.00000  Uiso   1.00
Pt80   Pt    0.36485   0.63455   0.63404   0.00000  Uiso   1.00
Pt81   Pt    0.63515   0.63455   0.63405   0.00000  Uiso   1.00
Pt82   Pt    0.36485   0.36545   0.63405   0.00000  Uiso   1.00
Pt83   Pt    0.63515   0.36545   0.63405   0.00000  Uiso   1.00
Pt84   Pt    0.63515   0.36545   0.36593   0.00000  Uiso   1.00
Pt85   Pt    0.36485   0.36545   0.36593   0.00000  Uiso   1.00
Pt86   Pt    0.63515   0.63455   0.36593   0.00000  Uiso   1.00
Pt87   Pt    0.36485   0.63455   0.36593   0.00000  Uiso   1.00
Pt88   Pt    0.56758   0.36545   0.29853   0.00000  Uiso   1.00
Pt89   Pt    0.43242   0.36545   0.29853   0.00000  Uiso   1.00
Pt90   Pt    0.56758   0.63455   0.29853   0.00000  Uiso   1.00
Pt91   Pt    0.43242   0.63455   0.29853   0.00000  Uiso   1.00
Pt92   Pt    0.56758   0.29818   0.36595   0.00000  Uiso   1.00
Pt93   Pt    0.43242   0.29818   0.36595   0.00000  Uiso   1.00
Pt94   Pt    0.56758   0.70182   0.36595   0.00000  Uiso   1.00
Pt95   Pt    0.43242   0.70182   0.36595   0.00000  Uiso   1.00
Pt96   Pt    0.43242   0.70182   0.63412   0.00000  Uiso   1.00
Pt97   Pt    0.56758   0.70182   0.63412   0.00000  Uiso   1.00
Pt98   Pt    0.43242   0.29818   0.63412   0.00000  Uiso   1.00
Pt99   Pt    0.56758   0.29818   0.63412   0.00000  Uiso   1.00
Pt100  Pt    0.36485   0.70182   0.56572   0.00000  Uiso   1.00
Pt101  Pt    0.63515   0.70182   0.56572   0.00000  Uiso   1.00
Pt102  Pt    0.36485   0.29818   0.56572   0.00000  Uiso   1.00
Pt103  Pt    0.63515   0.29818   0.56572   0.00000  Uiso   1.00
Pt104  Pt    0.63515   0.29818   0.43370   0.00000  Uiso   1.00
Pt105  Pt    0.36485   0.29818   0.43370   0.00000  Uiso   1.00
Pt106  Pt    0.63515   0.70182   0.43369   0.00000  Uiso   1.00
Pt107  Pt    0.36485   0.70182   0.43369   0.00000  Uiso   1.00
Pt108  Pt    0.36485   0.56727   0.70171   0.00000  Uiso   1.00
Pt109  Pt    0.63515   0.56727   0.70171   0.00000  Uiso   1.00
Pt110  Pt    0.36485   0.43273   0.70171   0.00000  Uiso   1.00
Pt111  Pt    0.63515   0.43273   0.70171   0.00000  Uiso   1.00
Pt112  Pt    0.43242   0.63455   0.70226   0.00000  Uiso   1.00
Pt113  Pt    0.56758   0.63455   0.70226   0.00000  Uiso   1.00
Pt114  Pt    0.43242   0.36545   0.70226   0.00000  Uiso   1.00
Pt115  Pt    0.56758   0.36545   0.70226   0.00000  Uiso   1.00
Pt116  Pt    0.70273   0.43273   0.36595   0.00000  Uiso   1.00
Pt117  Pt    0.29727   0.43273   0.36595   0.00000  Uiso   1.00
Pt118  Pt    0.70273   0.56727   0.36595   0.00000  Uiso   1.00
Pt119  Pt    0.29727   0.56727   0.36595   0.00000  Uiso   1.00
Pt120  Pt    0.70273   0.36545   0.43371   0.00000  Uiso   1.00
Pt121  Pt    0.29727   0.36545   0.43371   0.00000  Uiso   1.00
Pt122  Pt    0.70273   0.63455   0.43371   0.00000  Uiso   1.00
Pt123  Pt    0.29727   0.63455   0.43371   0.00000  Uiso   1.00
Pt124  Pt    0.63515   0.43273   0.29798   0.00000  Uiso   1.00
Pt125  Pt    0.36485   0.43273   0.29798   0.00000  Uiso   1.00
Pt126  Pt    0.63515   0.56727   0.29798   0.00000  Uiso   1.00
Pt127  Pt    0.36485   0.56727   0.29798   0.00000  Uiso   1.00
Pt128  Pt    0.29727   0.56727   0.63412   0.00000  Uiso   1.00
Pt129  Pt    0.29727   0.43273   0.63412   0.00000  Uiso   1.00
Pt130  Pt    0.70273   0.56727   0.63412   0.00000  Uiso   1.00
Pt131  Pt    0.70273   0.43273   0.63412   0.00000  Uiso   1.00
Pt132  Pt    0.29727   0.63455   0.56654   0.00000  Uiso   1.00
Pt133  Pt    0.70273   0.63455   0.56654   0.00000  Uiso   1.00
Au1    Au    0.29727   0.36545   0.56654   0.00000  Uiso   1.00
Au2    Au    0.70273   0.36545   0.56654   0.00000  Uiso   1.00
Au3    Au    0.50000   0.76909   0.50002   0.00000  Uiso   1.00
Au4    Au    0.50000   0.23091   0.50002   0.00000  Uiso   1.00
Au5    Au    0.50000   0.50000   0.76966   0.00000  Uiso   1.00
Au6    Au    0.50000   0.50000   0.23031   0.00000  Uiso   1.00
Au7    Au    0.77030   0.50000   0.50002   0.00000  Uiso   1.00
Au8    Au    0.22970   0.50000   0.50002   0.00000  Uiso   1.00
Au9    Au    0.56758   0.23091   0.43371   0.00000  Uiso   1.00
Au10   Au    0.43242   0.23091   0.43371   0.00000  Uiso   1.00
Au11   Au    0.56758   0.76909   0.43371   0.00000  Uiso   1.00
Au12   Au    0.43242   0.76909   0.43371   0.00000  Uiso   1.00
Au13   Au    0.43242   0.76909   0.56654   0.00000  Uiso   1.00
Au14   Au    0.56758   0.76909   0.56654   0.00000  Uiso   1.00
Au15   Au    0.43242   0.23091   0.56654   0.00000  Uiso   1.00
Au16   Au    0.56758   0.23091   0.56654   0.00000  Uiso   1.00
Au17   Au    0.50000   0.70182   0.70171   0.00000  Uiso   1.00
Au18   Au    0.50000   0.29818   0.70171   0.00000  Uiso   1.00
Au19   Au    0.50000   0.29818   0.29798   0.00000  Uiso   1.00
Au20   Au    0.50000   0.70182   0.29797   0.00000  Uiso   1.00
Au21   Au    0.70273   0.50000   0.29853   0.00000  Uiso   1.00
Au22   Au    0.29727   0.50000   0.29853   0.00000  Uiso   1.00
Au23   Au    0.56758   0.43273   0.23038   0.00000  Uiso   1.00
Au24   Au    0.43242   0.43273   0.23038   0.00000  Uiso   1.00
Au25   Au    0.56758   0.56727   0.23038   0.00000  Uiso   1.00
Au26   Au    0.43242   0.56727   0.23038   0.00000  Uiso   1.00
Au27   Au    0.43242   0.56727   0.76968   0.00000  Uiso   1.00
Au28   Au    0.56758   0.56727   0.76968   0.00000  Uiso   1.00
Au29   Au    0.43242   0.43273   0.76968   0.00000  Uiso   1.00
Au30   Au    0.56758   0.43273   0.76968   0.00000  Uiso   1.00
Au31   Au    0.29727   0.29818   0.49993   0.00000  Uiso   1.00
Au32   Au    0.29727   0.70182   0.49993   0.00000  Uiso   1.00
Au33   Au    0.70273   0.29818   0.49993   0.00000  Uiso   1.00
Au34   Au    0.70273   0.70182   0.49993   0.00000  Uiso   1.00
Au35   Au    0.22970   0.56727   0.56572   0.00000  Uiso   1.00
Au36   Au    0.22970   0.43273   0.56572   0.00000  Uiso   1.00
Au37   Au    0.77030   0.56727   0.56572   0.00000  Uiso   1.00
Au38   Au    0.77030   0.43273   0.56572   0.00000  Uiso   1.00
Au39   Au    0.77030   0.43273   0.43370   0.00000  Uiso   1.00
Au40   Au    0.77030   0.56727   0.43369   0.00000  Uiso   1.00
Au41   Au    0.22970   0.43273   0.43369   0.00000  Uiso   1.00
Au42   Au    0.22970   0.56727   0.43369   0.00000  Uiso   1.00
Au43   Au    0.29727   0.50000   0.70226   0.00000  Uiso   1.00
Au44   Au    0.70273   0.50000   0.70226   0.00000  Uiso   1.00
Au45   Au    0.50000   0.76909   0.63404   0.00000  Uiso   1.00
Au46   Au    0.50000   0.23091   0.63405   0.00000  Uiso   1.00
Au47   Au    0.50000   0.23091   0.36593   0.00000  Uiso   1.00
Au48   Au    0.50000   0.76909   0.36593   0.00000  Uiso   1.00
Au49   Au    0.63515   0.76909   0.50002   0.00000  Uiso   1.00
Au50   Au    0.36485   0.76909   0.50002   0.00000  Uiso   1.00
Au51   Au    0.63515   0.23091   0.50002   0.00000  Uiso   1.00
Au52   Au    0.36485   0.23091   0.50002   0.00000  Uiso   1.00
Au53   Au    0.50000   0.63455   0.76966   0.00000  Uiso   1.00
Au54   Au    0.50000   0.36545   0.76966   0.00000  Uiso   1.00
Au55   Au    0.50000   0.36545   0.23031   0.00000  Uiso   1.00
Au56   Au    0.50000   0.63455   0.23031   0.00000  Uiso   1.00
Au57   Au    0.36485   0.50000   0.76966   0.00000  Uiso   1.00
Au58   Au    0.63515   0.50000   0.76966   0.00000  Uiso   1.00
Au59   Au    0.63515   0.50000   0.23031   0.00000  Uiso   1.00
Au60   Au    0.36485   0.50000   0.23031   0.00000  Uiso   1.00
Au61   Au    0.22970   0.50000   0.63405   0.00000  Uiso   1.00
Au62   Au    0.77030   0.50000   0.63405   0.00000  Uiso   1.00
Au63   Au    0.77030   0.50000   0.36593   0.00000  Uiso   1.00
Au64   Au    0.22970   0.50000   0.36593   0.00000  Uiso   1.00
Au65   Au    0.77030   0.63455   0.50002   0.00000  Uiso   1.00
Au66   Au    0.77030   0.36545   0.50002   0.00000  Uiso   1.00
Au67   Au    0.22970   0.63455   0.50002   0.00000  Uiso   1.00
Au68   Au    0.22970   0.36545   0.50002   0.00000  Uiso   1.00
Au69   Au    0.36485   0.70182   0.70171   0.00000  Uiso   1.00
Au70   Au    0.63515   0.70182   0.70171   0.00000  Uiso   1.00
Au71   Au    0.36485   0.29818   0.70171   0.00000  Uiso   1.00
Au72   Au    0.63515   0.29818   0.70171   0.00000  Uiso   1.00
Au73   Au    0.70273   0.36545   0.29853   0.00000  Uiso   1.00
Au74   Au    0.29727   0.36545   0.29853   0.00000  Uiso   1.00
Au75   Au    0.70273   0.63455   0.29853   0.00000  Uiso   1.00
Au76   Au    0.29727   0.63455   0.29853   0.00000  Uiso   1.00
Au77   Au    0.70273   0.29818   0.36595   0.00000  Uiso   1.00
Au78   Au    0.29727   0.29818   0.36595   0.00000  Uiso   1.00
Au79   Au    0.70273   0.70182   0.36595   0.00000  Uiso   1.00
Au80   Au    0.29727   0.70182   0.36595   0.00000  Uiso   1.00
Au81   Au    0.63515   0.29818   0.29798   0.00000  Uiso   1.00
Au82   Au    0.36485   0.29818   0.29798   0.00000  Uiso   1.00
Au83   Au    0.63515   0.70182   0.29797   0.00000  Uiso   1.00
Au84   Au    0.36485   0.70182   0.29797   0.00000  Uiso   1.00
Au85   Au    0.29727   0.70182   0.63412   0.00000  Uiso   1.00
Au86   Au    0.70273   0.70182   0.63412   0.00000  Uiso   1.00
Au87   Au    0.29727   0.29818   0.63412   0.00000  Uiso   1.00
Au88   Au    0.70273   0.29818   0.63412   0.00000  Uiso   1.00
Au89   Au    0.29727   0.63455   0.70226   0.00000  Uiso   1.00
Au90   Au    0.70273   0.63455   0.70226   0.00000  Uiso   1.00
Au91   Au    0.29727   0.36545   0.70226   0.00000  Uiso   1.00
Au92   Au    0.70273   0.36545   0.70226   0.00000  Uiso   1.00
Au93   Au    0.36485   0.76909   0.63404   0.00000  Uiso   1.00
Au94   Au    0.63515   0.76909   0.63404   0.00000  Uiso   1.00
Au95   Au    0.36485   0.23091   0.63405   0.00000  Uiso   1.00
Au96   Au    0.63515   0.23091   0.63405   0.00000  Uiso   1.00
Au97   Au    0.63515   0.23091   0.36593   0.00000  Uiso   1.00
Au98   Au    0.36485   0.23091   0.36593   0.00000  Uiso   1.00
Au99   Au    0.63515   0.76909   0.36593   0.00000  Uiso   1.00
Au100  Au    0.36485   0.76909   0.36593   0.00000  Uiso   1.00
Au101  Au    0.36485   0.63455   0.76966   0.00000  Uiso   1.00
Au102  Au    0.63515   0.63455   0.76966   0.00000  Uiso   1.00
Au103  Au    0.36485   0.36545   0.76966   0.00000  Uiso   1.00
Au104  Au    0.63515   0.36545   0.76966   0.00000  Uiso   1.00
Au105  Au    0.63515   0.36545   0.23031   0.00000  Uiso   1.00
Au106  Au    0.36485   0.36545   0.23031   0.00000  Uiso   1.00
Au107  Au    0.63515   0.63455   0.23031   0.00000  Uiso   1.00
Au108  Au    0.36485   0.63455   0.23031   0.00000  Uiso   1.00
Au109  Au    0.22970   0.63455   0.63404   0.00000  Uiso   1.00
Au110  Au    0.77030   0.63455   0.63405   0.00000  Uiso   1.00
Au111  Au    0.22970   0.36545   0.63405   0.00000  Uiso   1.00
Au112  Au    0.77030   0.36545   0.63405   0.00000  Uiso   1.00
Au113  Au    0.77030   0.36545   0.36593   0.00000  Uiso   1.00
Au114  Au    0.22970   0.36545   0.36593   0.00000  Uiso   1.00
Au115  Au    0.77030   0.63455   0.36593   0.00000  Uiso   1.00
Au116  Au    0.22970   0.63455   0.36593   0.00000  Uiso   1.00
