# generated using pymatgen
data_Ni112Pt209
_symmetry_space_group_name_H-M   'P 1'
_cell_length_a   30.00000000
_cell_length_b   30.00000000
_cell_length_c   30.00000000
_cell_angle_alpha   90.00000000
_cell_angle_beta   90.00000000
_cell_angle_gamma   90.00000000
_symmetry_Int_Tables_number   1
_chemical_formula_structural   Ni112Pt209
_chemical_formula_sum   'Ni112 Pt209'
_cell_volume   27000.00000000
_cell_formula_units_Z   1
loop_
 _symmetry_equiv_pos_site_id
 _symmetry_equiv_pos_as_xyz
  1  'x, y, z'
loop_
 _atom_site_type_symbol
 _atom_site_label
 _atom_site_symmetry_multiplicity
 _atom_site_fract_x
 _atom_site_fract_y
 _atom_site_fract_z
 _atom_site_occupancy
  Ni  Ni0  1  0.43807548  0.50000000  0.43522346  1
  Ni  Ni1  1  0.43807548  0.50000000  0.56477654  1
  Ni  Ni2  1  0.56192452  0.50000000  0.56477654  1
  Ni  Ni3  1  0.56192452  0.50000000  0.43522346  1
  Ni  Ni4  1  0.43831082  0.56393648  0.62750093  1
  Ni  Ni5  1  0.56168918  0.56393648  0.62750093  1
  Ni  Ni6  1  0.43831082  0.43606352  0.62750093  1
  Ni  Ni7  1  0.43831082  0.56393648  0.37249907  1
  Ni  Ni8  1  0.56168918  0.43606352  0.62750093  1
  Ni  Ni9  1  0.56168918  0.56393648  0.37249907  1
  Ni  Ni10  1  0.43831082  0.43606352  0.37249907  1
  Ni  Ni11  1  0.56168918  0.43606352  0.37249907  1
  Ni  Ni12  1  0.43831793  0.37158724  0.56539156  1
  Ni  Ni13  1  0.43831793  0.37158724  0.43460844  1
  Ni  Ni14  1  0.43831793  0.62841276  0.56539156  1
  Ni  Ni15  1  0.43831793  0.62841276  0.43460844  1
  Ni  Ni16  1  0.56168207  0.37158724  0.56539156  1
  Ni  Ni17  1  0.56168207  0.37158724  0.43460844  1
  Ni  Ni18  1  0.56168207  0.62841276  0.56539156  1
  Ni  Ni19  1  0.56168207  0.62841276  0.43460844  1
  Ni  Ni20  1  0.31290194  0.50000000  0.43493013  1
  Ni  Ni21  1  0.31290194  0.50000000  0.56506987  1
  Ni  Ni22  1  0.68709806  0.50000000  0.56506987  1
  Ni  Ni23  1  0.68709806  0.50000000  0.43493013  1
  Ni  Ni24  1  0.43861227  0.50000000  0.30959067  1
  Ni  Ni25  1  0.43861227  0.50000000  0.69040933  1
  Ni  Ni26  1  0.56138773  0.50000000  0.69040933  1
  Ni  Ni27  1  0.56138773  0.50000000  0.30959067  1
  Ni  Ni28  1  0.31600232  0.56241652  0.62555287  1
  Ni  Ni29  1  0.31600232  0.43758348  0.62555287  1
  Ni  Ni30  1  0.31600232  0.56241652  0.37444713  1
  Ni  Ni31  1  0.68399768  0.56241652  0.62555287  1
  Ni  Ni32  1  0.31600232  0.43758348  0.37444713  1
  Ni  Ni33  1  0.68399768  0.43758348  0.62555287  1
  Ni  Ni34  1  0.68399768  0.56241652  0.37444713  1
  Ni  Ni35  1  0.68399768  0.43758348  0.37444713  1
  Ni  Ni36  1  0.31493269  0.37166673  0.43666240  1
  Ni  Ni37  1  0.31493269  0.37166673  0.56333760  1
  Ni  Ni38  1  0.31493269  0.62833327  0.56333760  1
  Ni  Ni39  1  0.31493269  0.62833327  0.43666240  1
  Ni  Ni40  1  0.68506731  0.37166673  0.56333760  1
  Ni  Ni41  1  0.68506731  0.62833327  0.56333760  1
  Ni  Ni42  1  0.68506731  0.37166673  0.43666240  1
  Ni  Ni43  1  0.68506731  0.62833327  0.43666240  1
  Ni  Ni44  1  0.43934913  0.37184495  0.31032034  1
  Ni  Ni45  1  0.43934913  0.37184495  0.68967966  1
  Ni  Ni46  1  0.43934913  0.62815505  0.68967966  1
  Ni  Ni47  1  0.43934913  0.62815505  0.31032034  1
  Ni  Ni48  1  0.56065087  0.37184495  0.31032034  1
  Ni  Ni49  1  0.56065087  0.37184495  0.68967966  1
  Ni  Ni50  1  0.56065087  0.62815505  0.68967966  1
  Ni  Ni51  1  0.56065087  0.62815505  0.31032034  1
  Ni  Ni52  1  0.43970824  0.69091523  0.62699421  1
  Ni  Ni53  1  0.56029176  0.69091523  0.62699421  1
  Ni  Ni54  1  0.43970824  0.69091523  0.37300579  1
  Ni  Ni55  1  0.56029176  0.69091523  0.37300579  1
  Ni  Ni56  1  0.43970824  0.30908477  0.62699421  1
  Ni  Ni57  1  0.56029176  0.30908477  0.62699421  1
  Ni  Ni58  1  0.43970824  0.30908477  0.37300579  1
  Ni  Ni59  1  0.56029176  0.30908477  0.37300579  1
  Ni  Ni60  1  0.31224949  0.50000000  0.30776896  1
  Ni  Ni61  1  0.31224949  0.50000000  0.69223104  1
  Ni  Ni62  1  0.68775051  0.50000000  0.69223104  1
  Ni  Ni63  1  0.68775051  0.50000000  0.30776896  1
  Ni  Ni64  1  0.43429700  0.24093604  0.43279195  1
  Ni  Ni65  1  0.43429700  0.24093604  0.56720805  1
  Ni  Ni66  1  0.43429700  0.75906396  0.56720805  1
  Ni  Ni67  1  0.43429700  0.75906396  0.43279195  1
  Ni  Ni68  1  0.56570300  0.24093604  0.56720805  1
  Ni  Ni69  1  0.56570300  0.24093604  0.43279195  1
  Ni  Ni70  1  0.56570300  0.75906396  0.56720805  1
  Ni  Ni71  1  0.56570300  0.75906396  0.43279195  1
  Ni  Ni72  1  0.31573556  0.62850381  0.31104434  1
  Ni  Ni73  1  0.31573556  0.37149619  0.31104434  1
  Ni  Ni74  1  0.31573556  0.62850381  0.68895566  1
  Ni  Ni75  1  0.31573556  0.37149619  0.68895566  1
  Ni  Ni76  1  0.68426444  0.37149619  0.68895566  1
  Ni  Ni77  1  0.68426444  0.37149619  0.31104434  1
  Ni  Ni78  1  0.68426444  0.62850381  0.68895566  1
  Ni  Ni79  1  0.68426444  0.62850381  0.31104434  1
  Ni  Ni80  1  0.31603431  0.69129903  0.62837922  1
  Ni  Ni81  1  0.31603431  0.69129903  0.37162078  1
  Ni  Ni82  1  0.68396569  0.69129903  0.62837922  1
  Ni  Ni83  1  0.31603431  0.30870097  0.62837922  1
  Ni  Ni84  1  0.68396569  0.69129903  0.37162078  1
  Ni  Ni85  1  0.31603431  0.30870097  0.37162078  1
  Ni  Ni86  1  0.68396569  0.30870097  0.62837922  1
  Ni  Ni87  1  0.68396569  0.30870097  0.37162078  1
  Ni  Ni88  1  0.19919144  0.50000000  0.56084682  1
  Ni  Ni89  1  0.19919144  0.50000000  0.43915318  1
  Ni  Ni90  1  0.80080856  0.50000000  0.56084682  1
  Ni  Ni91  1  0.80080856  0.50000000  0.43915318  1
  Ni  Ni92  1  0.31813383  0.25073745  0.43403517  1
  Ni  Ni93  1  0.31813383  0.25073745  0.56596483  1
  Ni  Ni94  1  0.31813383  0.74926255  0.56596483  1
  Ni  Ni95  1  0.31813383  0.74926255  0.43403517  1
  Ni  Ni96  1  0.68186617  0.25073745  0.43403517  1
  Ni  Ni97  1  0.68186617  0.25073745  0.56596483  1
  Ni  Ni98  1  0.68186617  0.74926255  0.56596483  1
  Ni  Ni99  1  0.68186617  0.74926255  0.43403517  1
  Ni  Ni100  1  0.43692857  0.25086678  0.68524941  1
  Ni  Ni101  1  0.43692857  0.25086678  0.31475059  1
  Ni  Ni102  1  0.43692857  0.74913322  0.68524941  1
  Ni  Ni103  1  0.43692857  0.74913322  0.31475059  1
  Ni  Ni104  1  0.56307143  0.25086678  0.31475059  1
  Ni  Ni105  1  0.56307143  0.25086678  0.68524941  1
  Ni  Ni106  1  0.56307143  0.74913322  0.68524941  1
  Ni  Ni107  1  0.56307143  0.74913322  0.31475059  1
  Ni  Ni108  1  0.44134295  0.50000000  0.19094146  1
  Ni  Ni109  1  0.44134295  0.50000000  0.80905854  1
  Ni  Ni110  1  0.55865705  0.50000000  0.19094146  1
  Ni  Ni111  1  0.55865705  0.50000000  0.80905854  1
  Pt  Pt112  1  0.50000000  0.50000000  0.50000000  1
  Pt  Pt113  1  0.43784970  0.56392483  0.50000000  1
  Pt  Pt114  1  0.56215030  0.56392483  0.50000000  1
  Pt  Pt115  1  0.43784970  0.43607517  0.50000000  1
  Pt  Pt116  1  0.56215030  0.43607517  0.50000000  1
  Pt  Pt117  1  0.50000000  0.56434564  0.56621282  1
  Pt  Pt118  1  0.50000000  0.43565436  0.56621282  1
  Pt  Pt119  1  0.50000000  0.56434564  0.43378718  1
  Pt  Pt120  1  0.50000000  0.43565436  0.43378718  1
  Pt  Pt121  1  0.62549261  0.50000000  0.50000000  1
  Pt  Pt122  1  0.37450739  0.50000000  0.50000000  1
  Pt  Pt123  1  0.50000000  0.50000000  0.62761726  1
  Pt  Pt124  1  0.50000000  0.50000000  0.37238274  1
  Pt  Pt125  1  0.50000000  0.37176723  0.50000000  1
  Pt  Pt126  1  0.50000000  0.62823277  0.50000000  1
  Pt  Pt127  1  0.62421097  0.56432065  0.56524805  1
  Pt  Pt128  1  0.37578903  0.56432065  0.56524805  1
  Pt  Pt129  1  0.37578903  0.43567935  0.56524805  1
  Pt  Pt130  1  0.62421097  0.43567935  0.56524805  1
  Pt  Pt131  1  0.62421097  0.56432065  0.43475195  1
  Pt  Pt132  1  0.37578903  0.56432065  0.43475195  1
  Pt  Pt133  1  0.37578903  0.43567935  0.43475195  1
  Pt  Pt134  1  0.62421097  0.43567935  0.43475195  1
  Pt  Pt135  1  0.37690531  0.50000000  0.62678195  1
  Pt  Pt136  1  0.62309469  0.50000000  0.62678195  1
  Pt  Pt137  1  0.62309469  0.50000000  0.37321805  1
  Pt  Pt138  1  0.37690531  0.50000000  0.37321805  1
  Pt  Pt139  1  0.37567125  0.37092142  0.50000000  1
  Pt  Pt140  1  0.62432875  0.37092142  0.50000000  1
  Pt  Pt141  1  0.37567125  0.62907858  0.50000000  1
  Pt  Pt142  1  0.62432875  0.62907858  0.50000000  1
  Pt  Pt143  1  0.50000000  0.37156314  0.62780444  1
  Pt  Pt144  1  0.50000000  0.62843686  0.62780444  1
  Pt  Pt145  1  0.50000000  0.37156314  0.37219556  1
  Pt  Pt146  1  0.50000000  0.62843686  0.37219556  1
  Pt  Pt147  1  0.31247448  0.56588098  0.50000000  1
  Pt  Pt148  1  0.31247448  0.43411902  0.50000000  1
  Pt  Pt149  1  0.68752552  0.56588098  0.50000000  1
  Pt  Pt150  1  0.68752552  0.43411902  0.50000000  1
  Pt  Pt151  1  0.50000000  0.56460097  0.68980829  1
  Pt  Pt152  1  0.50000000  0.43539903  0.68980829  1
  Pt  Pt153  1  0.50000000  0.56460097  0.31019171  1
  Pt  Pt154  1  0.50000000  0.43539903  0.31019171  1
  Pt  Pt155  1  0.43792856  0.69313102  0.50000000  1
  Pt  Pt156  1  0.56207144  0.69313102  0.50000000  1
  Pt  Pt157  1  0.43792856  0.30686898  0.50000000  1
  Pt  Pt158  1  0.56207144  0.30686898  0.50000000  1
  Pt  Pt159  1  0.50000000  0.69319491  0.56575602  1
  Pt  Pt160  1  0.50000000  0.69319491  0.43424398  1
  Pt  Pt161  1  0.50000000  0.30680509  0.56575602  1
  Pt  Pt162  1  0.50000000  0.30680509  0.43424398  1
  Pt  Pt163  1  0.37764014  0.37212450  0.62740988  1
  Pt  Pt164  1  0.62235986  0.37212450  0.62740988  1
  Pt  Pt165  1  0.37764014  0.62787550  0.62740988  1
  Pt  Pt166  1  0.62235986  0.62787550  0.62740988  1
  Pt  Pt167  1  0.62235986  0.37212450  0.37259012  1
  Pt  Pt168  1  0.37764014  0.37212450  0.37259012  1
  Pt  Pt169  1  0.37764014  0.62787550  0.37259012  1
  Pt  Pt170  1  0.62235986  0.62787550  0.37259012  1
  Pt  Pt171  1  0.62176016  0.56316338  0.68846420  1
  Pt  Pt172  1  0.37823984  0.56316338  0.68846420  1
  Pt  Pt173  1  0.37823984  0.43683662  0.68846420  1
  Pt  Pt174  1  0.62176016  0.43683662  0.68846420  1
  Pt  Pt175  1  0.37823984  0.56316338  0.31153580  1
  Pt  Pt176  1  0.62176016  0.56316338  0.31153580  1
  Pt  Pt177  1  0.37823984  0.43683662  0.31153580  1
  Pt  Pt178  1  0.62176016  0.43683662  0.31153580  1
  Pt  Pt179  1  0.37718344  0.69091015  0.56458422  1
  Pt  Pt180  1  0.62281656  0.69091015  0.56458422  1
  Pt  Pt181  1  0.37718344  0.69091015  0.43541578  1
  Pt  Pt182  1  0.62281656  0.69091015  0.43541578  1
  Pt  Pt183  1  0.62281656  0.30908985  0.56458422  1
  Pt  Pt184  1  0.37718344  0.30908985  0.56458422  1
  Pt  Pt185  1  0.62281656  0.30908985  0.43541578  1
  Pt  Pt186  1  0.37718344  0.30908985  0.43541578  1
  Pt  Pt187  1  0.25608338  0.50000000  0.50000000  1
  Pt  Pt188  1  0.74391662  0.50000000  0.50000000  1
  Pt  Pt189  1  0.50000000  0.50000000  0.74992486  1
  Pt  Pt190  1  0.50000000  0.50000000  0.25007514  1
  Pt  Pt191  1  0.50000000  0.24607000  0.50000000  1
  Pt  Pt192  1  0.50000000  0.75393000  0.50000000  1
  Pt  Pt193  1  0.24961691  0.56802115  0.56820484  1
  Pt  Pt194  1  0.75038309  0.56802115  0.56820484  1
  Pt  Pt195  1  0.24961691  0.43197885  0.56820484  1
  Pt  Pt196  1  0.75038309  0.43197885  0.56820484  1
  Pt  Pt197  1  0.24961691  0.56802115  0.43179516  1
  Pt  Pt198  1  0.75038309  0.56802115  0.43179516  1
  Pt  Pt199  1  0.75038309  0.43197885  0.43179516  1
  Pt  Pt200  1  0.24961691  0.43197885  0.43179516  1
  Pt  Pt201  1  0.30717728  0.69870333  0.50000000  1
  Pt  Pt202  1  0.69282272  0.69870333  0.50000000  1
  Pt  Pt203  1  0.30717728  0.30129667  0.50000000  1
  Pt  Pt204  1  0.69282272  0.30129667  0.50000000  1
  Pt  Pt205  1  0.50000000  0.69470241  0.69261360  1
  Pt  Pt206  1  0.50000000  0.69470241  0.30738640  1
  Pt  Pt207  1  0.50000000  0.30529759  0.69261360  1
  Pt  Pt208  1  0.50000000  0.30529759  0.30738640  1
  Pt  Pt209  1  0.43353639  0.56834932  0.75986402  1
  Pt  Pt210  1  0.43353639  0.56834932  0.24013598  1
  Pt  Pt211  1  0.56646361  0.56834932  0.75986402  1
  Pt  Pt212  1  0.56646361  0.56834932  0.24013598  1
  Pt  Pt213  1  0.43353639  0.43165068  0.75986402  1
  Pt  Pt214  1  0.43353639  0.43165068  0.24013598  1
  Pt  Pt215  1  0.56646361  0.43165068  0.75986402  1
  Pt  Pt216  1  0.56646361  0.43165068  0.24013598  1
  Pt  Pt217  1  0.25207623  0.50000000  0.62752544  1
  Pt  Pt218  1  0.74792377  0.50000000  0.62752544  1
  Pt  Pt219  1  0.25207623  0.50000000  0.37247456  1
  Pt  Pt220  1  0.74792377  0.50000000  0.37247456  1
  Pt  Pt221  1  0.24777570  0.63095524  0.50000000  1
  Pt  Pt222  1  0.24777570  0.36904476  0.50000000  1
  Pt  Pt223  1  0.75222430  0.36904476  0.50000000  1
  Pt  Pt224  1  0.75222430  0.63095524  0.50000000  1
  Pt  Pt225  1  0.62543317  0.50000000  0.75633744  1
  Pt  Pt226  1  0.37456683  0.50000000  0.75633744  1
  Pt  Pt227  1  0.37456683  0.50000000  0.24366256  1
  Pt  Pt228  1  0.62543317  0.50000000  0.24366256  1
  Pt  Pt229  1  0.37271481  0.24078187  0.50000000  1
  Pt  Pt230  1  0.62728519  0.24078187  0.50000000  1
  Pt  Pt231  1  0.37271481  0.75921813  0.50000000  1
  Pt  Pt232  1  0.62728519  0.75921813  0.50000000  1
  Pt  Pt233  1  0.50000000  0.37031560  0.75678737  1
  Pt  Pt234  1  0.50000000  0.62968440  0.75678737  1
  Pt  Pt235  1  0.50000000  0.37031560  0.24321263  1
  Pt  Pt236  1  0.50000000  0.62968440  0.24321263  1
  Pt  Pt237  1  0.50000000  0.24249108  0.62931500  1
  Pt  Pt238  1  0.50000000  0.75750892  0.62931500  1
  Pt  Pt239  1  0.50000000  0.24249108  0.37068500  1
  Pt  Pt240  1  0.50000000  0.75750892  0.37068500  1
  Pt  Pt241  1  0.62668058  0.69312461  0.69036293  1
  Pt  Pt242  1  0.37331942  0.69312461  0.69036293  1
  Pt  Pt243  1  0.62668058  0.69312461  0.30963707  1
  Pt  Pt244  1  0.37331942  0.69312461  0.30963707  1
  Pt  Pt245  1  0.37331942  0.30687539  0.69036293  1
  Pt  Pt246  1  0.62668058  0.30687539  0.69036293  1
  Pt  Pt247  1  0.62668058  0.30687539  0.30963707  1
  Pt  Pt248  1  0.37331942  0.30687539  0.30963707  1
  Pt  Pt249  1  0.25866657  0.37033131  0.62921537  1
  Pt  Pt250  1  0.25866657  0.62966869  0.62921537  1
  Pt  Pt251  1  0.74133343  0.37033131  0.62921537  1
  Pt  Pt252  1  0.74133343  0.62966869  0.62921537  1
  Pt  Pt253  1  0.25866657  0.62966869  0.37078463  1
  Pt  Pt254  1  0.25866657  0.37033131  0.37078463  1
  Pt  Pt255  1  0.74133343  0.37033131  0.37078463  1
  Pt  Pt256  1  0.74133343  0.62966869  0.37078463  1
  Pt  Pt257  1  0.37315258  0.36943187  0.75128957  1
  Pt  Pt258  1  0.62684742  0.36943187  0.75128957  1
  Pt  Pt259  1  0.62684742  0.63056813  0.75128957  1
  Pt  Pt260  1  0.37315258  0.63056813  0.75128957  1
  Pt  Pt261  1  0.37315258  0.36943187  0.24871043  1
  Pt  Pt262  1  0.62684742  0.36943187  0.24871043  1
  Pt  Pt263  1  0.62684742  0.63056813  0.24871043  1
  Pt  Pt264  1  0.37315258  0.63056813  0.24871043  1
  Pt  Pt265  1  0.37624590  0.24714075  0.62705021  1
  Pt  Pt266  1  0.62375410  0.24714075  0.62705021  1
  Pt  Pt267  1  0.37624590  0.75285925  0.62705021  1
  Pt  Pt268  1  0.62375410  0.75285925  0.62705021  1
  Pt  Pt269  1  0.37624590  0.24714075  0.37294979  1
  Pt  Pt270  1  0.62375410  0.24714075  0.37294979  1
  Pt  Pt271  1  0.62375410  0.75285925  0.37294979  1
  Pt  Pt272  1  0.37624590  0.75285925  0.37294979  1
  Pt  Pt273  1  0.19239807  0.56035122  0.50000000  1
  Pt  Pt274  1  0.19239807  0.43964878  0.50000000  1
  Pt  Pt275  1  0.80760193  0.56035122  0.50000000  1
  Pt  Pt276  1  0.80760193  0.43964878  0.50000000  1
  Pt  Pt277  1  0.25683934  0.56498287  0.68594116  1
  Pt  Pt278  1  0.74316066  0.56498287  0.68594116  1
  Pt  Pt279  1  0.25683934  0.43501713  0.68594116  1
  Pt  Pt280  1  0.74316066  0.43501713  0.68594116  1
  Pt  Pt281  1  0.25683934  0.56498287  0.31405884  1
  Pt  Pt282  1  0.74316066  0.56498287  0.31405884  1
  Pt  Pt283  1  0.74316066  0.43501713  0.31405884  1
  Pt  Pt284  1  0.25683934  0.43501713  0.31405884  1
  Pt  Pt285  1  0.25532991  0.68983642  0.56894173  1
  Pt  Pt286  1  0.74467009  0.68983642  0.56894173  1
  Pt  Pt287  1  0.25532991  0.68983642  0.43105827  1
  Pt  Pt288  1  0.74467009  0.68983642  0.43105827  1
  Pt  Pt289  1  0.25532991  0.31016358  0.56894173  1
  Pt  Pt290  1  0.74467009  0.31016358  0.56894173  1
  Pt  Pt291  1  0.74467009  0.31016358  0.43105827  1
  Pt  Pt292  1  0.25532991  0.31016358  0.43105827  1
  Pt  Pt293  1  0.31535233  0.56516099  0.75074467  1
  Pt  Pt294  1  0.31535233  0.56516099  0.24925533  1
  Pt  Pt295  1  0.31535233  0.43483901  0.75074467  1
  Pt  Pt296  1  0.31535233  0.43483901  0.24925533  1
  Pt  Pt297  1  0.68464767  0.56516099  0.75074467  1
  Pt  Pt298  1  0.68464767  0.56516099  0.24925533  1
  Pt  Pt299  1  0.68464767  0.43483901  0.75074467  1
  Pt  Pt300  1  0.68464767  0.43483901  0.24925533  1
  Pt  Pt301  1  0.43568691  0.69095808  0.75239317  1
  Pt  Pt302  1  0.43568691  0.69095808  0.24760683  1
  Pt  Pt303  1  0.56431309  0.69095808  0.75239317  1
  Pt  Pt304  1  0.56431309  0.69095808  0.24760683  1
  Pt  Pt305  1  0.43568691  0.30904192  0.75239317  1
  Pt  Pt306  1  0.43568691  0.30904192  0.24760683  1
  Pt  Pt307  1  0.56431309  0.30904192  0.75239317  1
  Pt  Pt308  1  0.56431309  0.30904192  0.24760683  1
  Pt  Pt309  1  0.43791586  0.81508850  0.50000000  1
  Pt  Pt310  1  0.56208414  0.81508850  0.50000000  1
  Pt  Pt311  1  0.43791586  0.18491150  0.50000000  1
  Pt  Pt312  1  0.56208414  0.18491150  0.50000000  1
  Pt  Pt313  1  0.50000000  0.56109896  0.81642963  1
  Pt  Pt314  1  0.50000000  0.43890104  0.81642963  1
  Pt  Pt315  1  0.50000000  0.56109896  0.18357037  1
  Pt  Pt316  1  0.50000000  0.43890104  0.18357037  1
  Pt  Pt317  1  0.50000000  0.81430547  0.56427219  1
  Pt  Pt318  1  0.50000000  0.81430547  0.43572781  1
  Pt  Pt319  1  0.50000000  0.18569453  0.56427219  1
  Pt  Pt320  1  0.50000000  0.18569453  0.43572781  1
