# generated using pymatgen
data_Ni112HPt209
_symmetry_space_group_name_H-M   'P 1'
_cell_length_a   30.00000000
_cell_length_b   30.00000000
_cell_length_c   30.00000000
_cell_angle_alpha   90.00000000
_cell_angle_beta   90.00000000
_cell_angle_gamma   90.00000000
_symmetry_Int_Tables_number   1
_chemical_formula_structural   Ni112HPt209
_chemical_formula_sum   'Ni112 H1 Pt209'
_cell_volume   27000.00000000
_cell_formula_units_Z   1
loop_
 _symmetry_equiv_pos_site_id
 _symmetry_equiv_pos_as_xyz
  1  'x, y, z'
loop_
 _atom_site_type_symbol
 _atom_site_label
 _atom_site_symmetry_multiplicity
 _atom_site_fract_x
 _atom_site_fract_y
 _atom_site_fract_z
 _atom_site_occupancy
  Ni  Ni0  1  0.43808817  0.49993720  0.43505446  1
  Ni  Ni1  1  0.43807241  0.49994832  0.56472910  1
  Ni  Ni2  1  0.56191869  0.49997107  0.56483216  1
  Ni  Ni3  1  0.56196194  0.49997718  0.43517895  1
  Ni  Ni4  1  0.43810808  0.56434882  0.62764256  1
  Ni  Ni5  1  0.56167468  0.56387039  0.62745476  1
  Ni  Ni6  1  0.43827773  0.43601697  0.62742983  1
  Ni  Ni7  1  0.43831027  0.56390327  0.37245537  1
  Ni  Ni8  1  0.56173817  0.43598471  0.62746160  1
  Ni  Ni9  1  0.56169870  0.56393621  0.37248181  1
  Ni  Ni10  1  0.43835482  0.43598224  0.37245966  1
  Ni  Ni11  1  0.56170997  0.43603790  0.37248819  1
  Ni  Ni12  1  0.43833222  0.37160486  0.56536558  1
  Ni  Ni13  1  0.43838479  0.37156780  0.43456674  1
  Ni  Ni14  1  0.43802098  0.62836378  0.56576409  1
  Ni  Ni15  1  0.43833274  0.62830223  0.43452985  1
  Ni  Ni16  1  0.56168556  0.37160435  0.56541914  1
  Ni  Ni17  1  0.56170236  0.37161542  0.43461845  1
  Ni  Ni18  1  0.56166009  0.62832753  0.56540694  1
  Ni  Ni19  1  0.56169285  0.62831452  0.43454572  1
  Ni  Ni20  1  0.31283930  0.49993056  0.43484724  1
  Ni  Ni21  1  0.31307285  0.50017284  0.56503768  1
  Ni  Ni22  1  0.68705892  0.49999233  0.56503398  1
  Ni  Ni23  1  0.68709316  0.49999576  0.43499290  1
  Ni  Ni24  1  0.43862722  0.50000391  0.30956139  1
  Ni  Ni25  1  0.43865916  0.49983431  0.69034860  1
  Ni  Ni26  1  0.56155092  0.49971310  0.69036757  1
  Ni  Ni27  1  0.56140038  0.50003130  0.30956218  1
  Ni  Ni28  1  0.31649922  0.56289612  0.62554132  1
  Ni  Ni29  1  0.31603173  0.43757652  0.62544359  1
  Ni  Ni30  1  0.31595128  0.56241537  0.37442272  1
  Ni  Ni31  1  0.68399145  0.56247862  0.62552759  1
  Ni  Ni32  1  0.31592729  0.43749286  0.37440463  1
  Ni  Ni33  1  0.68402261  0.43746363  0.62551320  1
  Ni  Ni34  1  0.68401608  0.56242065  0.37447627  1
  Ni  Ni35  1  0.68399961  0.43754641  0.37447643  1
  Ni  Ni36  1  0.31482947  0.37155647  0.43662119  1
  Ni  Ni37  1  0.31487128  0.37159972  0.56328749  1
  Ni  Ni38  1  0.31551360  0.62818563  0.56378070  1
  Ni  Ni39  1  0.31492955  0.62829336  0.43665766  1
  Ni  Ni40  1  0.68513795  0.37164394  0.56333092  1
  Ni  Ni41  1  0.68509220  0.62832795  0.56332928  1
  Ni  Ni42  1  0.68510835  0.37167869  0.43666125  1
  Ni  Ni43  1  0.68510770  0.62832662  0.43664448  1
  Ni  Ni44  1  0.43941014  0.37189585  0.31028553  1
  Ni  Ni45  1  0.43932132  0.37183961  0.68968687  1
  Ni  Ni46  1  0.43917559  0.62838062  0.68994778  1
  Ni  Ni47  1  0.43935163  0.62810025  0.31023684  1
  Ni  Ni48  1  0.56066641  0.37187777  0.31024092  1
  Ni  Ni49  1  0.56066395  0.37184251  0.68970044  1
  Ni  Ni50  1  0.56072181  0.62806457  0.68962798  1
  Ni  Ni51  1  0.56067054  0.62811750  0.31023542  1
  Ni  Ni52  1  0.43945787  0.69092388  0.62732607  1
  Ni  Ni53  1  0.56026832  0.69079284  0.62684729  1
  Ni  Ni54  1  0.43975228  0.69082611  0.37296036  1
  Ni  Ni55  1  0.56030791  0.69082748  0.37296070  1
  Ni  Ni56  1  0.43971422  0.30912948  0.62698786  1
  Ni  Ni57  1  0.56029542  0.30911338  0.62699972  1
  Ni  Ni58  1  0.43976795  0.30916239  0.37301155  1
  Ni  Ni59  1  0.56031016  0.30913381  0.37298549  1
  Ni  Ni60  1  0.31234719  0.50001754  0.30788041  1
  Ni  Ni61  1  0.31257856  0.49996069  0.69190039  1
  Ni  Ni62  1  0.68774523  0.49999177  0.69219137  1
  Ni  Ni63  1  0.68762734  0.50000846  0.30790676  1
  Ni  Ni64  1  0.43434526  0.24107662  0.43280990  1
  Ni  Ni65  1  0.43431950  0.24103061  0.56719336  1
  Ni  Ni66  1  0.43438639  0.75872115  0.56675665  1
  Ni  Ni67  1  0.43436676  0.75897292  0.43273027  1
  Ni  Ni68  1  0.56570871  0.24099558  0.56720887  1
  Ni  Ni69  1  0.56571951  0.24098848  0.43278344  1
  Ni  Ni70  1  0.56562964  0.75876234  0.56720108  1
  Ni  Ni71  1  0.56574825  0.75910258  0.43275388  1
  Ni  Ni72  1  0.31573119  0.62842282  0.31100189  1
  Ni  Ni73  1  0.31568695  0.37161887  0.31105808  1
  Ni  Ni74  1  0.31577136  0.62862443  0.68909288  1
  Ni  Ni75  1  0.31574245  0.37152111  0.68886243  1
  Ni  Ni76  1  0.68431647  0.37149195  0.68892249  1
  Ni  Ni77  1  0.68425511  0.37157331  0.31103565  1
  Ni  Ni78  1  0.68425749  0.62841805  0.68891453  1
  Ni  Ni79  1  0.68426619  0.62843688  0.31103251  1
  Ni  Ni80  1  0.31597350  0.69130973  0.62840395  1
  Ni  Ni81  1  0.31603885  0.69120548  0.37155947  1
  Ni  Ni82  1  0.68400026  0.69124931  0.62835665  1
  Ni  Ni83  1  0.31596856  0.30871345  0.62837336  1
  Ni  Ni84  1  0.68395543  0.69132314  0.37159072  1
  Ni  Ni85  1  0.31596726  0.30879423  0.37163850  1
  Ni  Ni86  1  0.68404951  0.30870232  0.62834045  1
  Ni  Ni87  1  0.68395719  0.30878569  0.37159647  1
  Ni  Ni88  1  0.19918671  0.50009590  0.56084047  1
  Ni  Ni89  1  0.19927147  0.50000062  0.43922664  1
  Ni  Ni90  1  0.80084827  0.49999778  0.56084963  1
  Ni  Ni91  1  0.80080333  0.49998656  0.43917961  1
  Ni  Ni92  1  0.31805817  0.25081539  0.43399534  1
  Ni  Ni93  1  0.31807923  0.25070106  0.56599395  1
  Ni  Ni94  1  0.31828975  0.74904073  0.56582427  1
  Ni  Ni95  1  0.31819925  0.74916987  0.43394060  1
  Ni  Ni96  1  0.68186712  0.25077150  0.43399815  1
  Ni  Ni97  1  0.68191429  0.25068336  0.56595486  1
  Ni  Ni98  1  0.68188450  0.74923322  0.56594503  1
  Ni  Ni99  1  0.68186341  0.74923929  0.43400542  1
  Ni  Ni100  1  0.43694091  0.25086847  0.68525662  1
  Ni  Ni101  1  0.43691416  0.25099412  0.31476913  1
  Ni  Ni102  1  0.43658561  0.74831139  0.68527740  1
  Ni  Ni103  1  0.43697777  0.74908010  0.31470557  1
  Ni  Ni104  1  0.56307737  0.25094342  0.31466134  1
  Ni  Ni105  1  0.56308029  0.25090600  0.68528725  1
  Ni  Ni106  1  0.56294055  0.74894445  0.68507558  1
  Ni  Ni107  1  0.56306765  0.74905993  0.31465510  1
  Ni  Ni108  1  0.44135654  0.49999702  0.19086874  1
  Ni  Ni109  1  0.44138886  0.49983682  0.80911054  1
  Ni  Ni110  1  0.55864495  0.50000565  0.19086194  1
  Ni  Ni111  1  0.55875205  0.49992872  0.80913384  1
  H  H112  1  0.34172724  0.72878667  0.72418190  1
  Pt  Pt113  1  0.50002902  0.49992693  0.49998614  1
  Pt  Pt114  1  0.43781943  0.56377684  0.49990694  1
  Pt  Pt115  1  0.56217294  0.56394105  0.50002630  1
  Pt  Pt116  1  0.43783839  0.43593920  0.49995642  1
  Pt  Pt117  1  0.56220741  0.43600550  0.50000597  1
  Pt  Pt118  1  0.49988743  0.56438826  0.56627291  1
  Pt  Pt119  1  0.50002280  0.43564632  0.56622234  1
  Pt  Pt120  1  0.50003019  0.56431847  0.43376600  1
  Pt  Pt121  1  0.50003186  0.43563306  0.43378731  1
  Pt  Pt122  1  0.62546608  0.49998443  0.50000110  1
  Pt  Pt123  1  0.37450632  0.49972045  0.49961238  1
  Pt  Pt124  1  0.49996142  0.49999519  0.62765127  1
  Pt  Pt125  1  0.50001863  0.49998537  0.37229235  1
  Pt  Pt126  1  0.50003211  0.37174014  0.49999848  1
  Pt  Pt127  1  0.49995153  0.62816652  0.49998831  1
  Pt  Pt128  1  0.62419615  0.56427332  0.56523134  1
  Pt  Pt129  1  0.37608908  0.56421386  0.56513518  1
  Pt  Pt130  1  0.37575796  0.43566390  0.56515331  1
  Pt  Pt131  1  0.62419952  0.43565417  0.56523532  1
  Pt  Pt132  1  0.62416552  0.56431650  0.43473884  1
  Pt  Pt133  1  0.37575888  0.56425586  0.43466756  1
  Pt  Pt134  1  0.37582821  0.43558104  0.43462383  1
  Pt  Pt135  1  0.62421260  0.43567731  0.43476041  1
  Pt  Pt136  1  0.37701523  0.50002778  0.62664646  1
  Pt  Pt137  1  0.62316691  0.49995075  0.62676880  1
  Pt  Pt138  1  0.62311776  0.50001609  0.37323678  1
  Pt  Pt139  1  0.37688459  0.49997471  0.37314673  1
  Pt  Pt140  1  0.37565858  0.37088182  0.49995982  1
  Pt  Pt141  1  0.62437798  0.37094250  0.50001953  1
  Pt  Pt142  1  0.37580716  0.62893670  0.49998387  1
  Pt  Pt143  1  0.62434450  0.62901968  0.49998747  1
  Pt  Pt144  1  0.49999145  0.37156189  0.62777813  1
  Pt  Pt145  1  0.49984686  0.62845842  0.62788703  1
  Pt  Pt146  1  0.50006138  0.37160978  0.37218484  1
  Pt  Pt147  1  0.50000758  0.62835398  0.37214719  1
  Pt  Pt148  1  0.31262570  0.56587798  0.50007689  1
  Pt  Pt149  1  0.31241658  0.43397285  0.49987590  1
  Pt  Pt150  1  0.68750666  0.56588900  0.49995531  1
  Pt  Pt151  1  0.68754773  0.43412583  0.49999376  1
  Pt  Pt152  1  0.50024371  0.56437038  0.68981703  1
  Pt  Pt153  1  0.50003261  0.43534327  0.68981033  1
  Pt  Pt154  1  0.50002866  0.56456091  0.31010644  1
  Pt  Pt155  1  0.50004769  0.43544131  0.31011836  1
  Pt  Pt156  1  0.43797972  0.69298516  0.49986804  1
  Pt  Pt157  1  0.56214379  0.69301284  0.49983999  1
  Pt  Pt158  1  0.43790145  0.30687811  0.49997772  1
  Pt  Pt159  1  0.56213464  0.30689395  0.50001502  1
  Pt  Pt160  1  0.50007476  0.69301336  0.56557443  1
  Pt  Pt161  1  0.50004432  0.69305875  0.43413685  1
  Pt  Pt162  1  0.50000391  0.30685094  0.56575710  1
  Pt  Pt163  1  0.50005520  0.30686765  0.43422572  1
  Pt  Pt164  1  0.37763375  0.37211213  0.62733755  1
  Pt  Pt165  1  0.62238766  0.37208165  0.62739741  1
  Pt  Pt166  1  0.37800490  0.62908177  0.62878953  1
  Pt  Pt167  1  0.62239711  0.62780591  0.62736895  1
  Pt  Pt168  1  0.62234070  0.37216363  0.37255422  1
  Pt  Pt169  1  0.37763456  0.37216191  0.37261768  1
  Pt  Pt170  1  0.37763864  0.62779128  0.37252922  1
  Pt  Pt171  1  0.62239125  0.62783735  0.37253986  1
  Pt  Pt172  1  0.62167896  0.56311043  0.68843367  1
  Pt  Pt173  1  0.37835165  0.56311059  0.68837865  1
  Pt  Pt174  1  0.37824990  0.43683053  0.68839167  1
  Pt  Pt175  1  0.62178963  0.43675741  0.68845705  1
  Pt  Pt176  1  0.37823743  0.56317016  0.31147869  1
  Pt  Pt177  1  0.62173369  0.56317002  0.31150672  1
  Pt  Pt178  1  0.37827208  0.43681867  0.31150415  1
  Pt  Pt179  1  0.62171835  0.43686962  0.31152540  1
  Pt  Pt180  1  0.37733274  0.69070528  0.56451827  1
  Pt  Pt181  1  0.62280610  0.69085391  0.56451547  1
  Pt  Pt182  1  0.37723854  0.69081746  0.43535974  1
  Pt  Pt183  1  0.62281715  0.69087743  0.43540835  1
  Pt  Pt184  1  0.62283048  0.30906991  0.56458452  1
  Pt  Pt185  1  0.37717873  0.30906314  0.56455138  1
  Pt  Pt186  1  0.62279209  0.30912165  0.43541771  1
  Pt  Pt187  1  0.37719821  0.30907519  0.43542890  1
  Pt  Pt188  1  0.25610478  0.50002632  0.50006644  1
  Pt  Pt189  1  0.74397296  0.50003387  0.50003375  1
  Pt  Pt190  1  0.50015561  0.49982090  0.74992688  1
  Pt  Pt191  1  0.50001710  0.50000021  0.25000121  1
  Pt  Pt192  1  0.50002715  0.24607429  0.49998777  1
  Pt  Pt193  1  0.50006660  0.75384147  0.49984913  1
  Pt  Pt194  1  0.24983522  0.56802865  0.56810436  1
  Pt  Pt195  1  0.75034786  0.56799143  0.56815032  1
  Pt  Pt196  1  0.24974481  0.43209077  0.56810570  1
  Pt  Pt197  1  0.75040182  0.43199197  0.56815058  1
  Pt  Pt198  1  0.24971135  0.56795498  0.43190303  1
  Pt  Pt199  1  0.75043616  0.56802956  0.43182438  1
  Pt  Pt200  1  0.75039604  0.43198693  0.43182829  1
  Pt  Pt201  1  0.24956491  0.43193034  0.43178430  1
  Pt  Pt202  1  0.30737002  0.69848299  0.49987598  1
  Pt  Pt203  1  0.69287425  0.69869867  0.49999437  1
  Pt  Pt204  1  0.30711164  0.30131541  0.50001406  1
  Pt  Pt205  1  0.69285227  0.30133100  0.50000982  1
  Pt  Pt206  1  0.50008401  0.69442135  0.69253498  1
  Pt  Pt207  1  0.50000728  0.69460882  0.30734594  1
  Pt  Pt208  1  0.49998959  0.30534321  0.69265208  1
  Pt  Pt209  1  0.50001175  0.30538493  0.30735231  1
  Pt  Pt210  1  0.43379547  0.56792517  0.75956977  1
  Pt  Pt211  1  0.43350152  0.56838160  0.24003887  1
  Pt  Pt212  1  0.56665366  0.56835907  0.76007667  1
  Pt  Pt213  1  0.56651415  0.56840710  0.23999626  1
  Pt  Pt214  1  0.43353793  0.43158791  0.75984933  1
  Pt  Pt215  1  0.43355899  0.43165021  0.24009733  1
  Pt  Pt216  1  0.56659049  0.43148459  0.76004095  1
  Pt  Pt217  1  0.56649856  0.43161944  0.24002643  1
  Pt  Pt218  1  0.25216788  0.50012527  0.62745930  1
  Pt  Pt219  1  0.74784103  0.49999808  0.62746692  1
  Pt  Pt220  1  0.25201678  0.50001853  0.37245434  1
  Pt  Pt221  1  0.74784715  0.50000651  0.37252452  1
  Pt  Pt222  1  0.24774651  0.63094279  0.50000938  1
  Pt  Pt223  1  0.24755634  0.36898362  0.50001018  1
  Pt  Pt224  1  0.75230828  0.36902475  0.50000102  1
  Pt  Pt225  1  0.75228171  0.63094991  0.49998976  1
  Pt  Pt226  1  0.62545861  0.49987126  0.75632575  1
  Pt  Pt227  1  0.37453246  0.49983200  0.75638603  1
  Pt  Pt228  1  0.37460760  0.50000022  0.24363884  1
  Pt  Pt229  1  0.62538116  0.50001105  0.24364752  1
  Pt  Pt230  1  0.37261408  0.24076313  0.49999823  1
  Pt  Pt231  1  0.62734800  0.24078981  0.49999637  1
  Pt  Pt232  1  0.37275860  0.75915050  0.49986512  1
  Pt  Pt233  1  0.62734852  0.75921671  0.49998611  1
  Pt  Pt234  1  0.50004448  0.37028410  0.75682285  1
  Pt  Pt235  1  0.50022853  0.62945121  0.75679465  1
  Pt  Pt236  1  0.50002225  0.37033801  0.24311531  1
  Pt  Pt237  1  0.49999922  0.62963248  0.24313259  1
  Pt  Pt238  1  0.50003785  0.24253159  0.62934837  1
  Pt  Pt239  1  0.49959424  0.75725939  0.62931402  1
  Pt  Pt240  1  0.50002545  0.24253825  0.37062197  1
  Pt  Pt241  1  0.50005385  0.75746523  0.37061136  1
  Pt  Pt242  1  0.62667274  0.69302028  0.69031251  1
  Pt  Pt243  1  0.36933925  0.69670948  0.69392484  1
  Pt  Pt244  1  0.62668109  0.69308495  0.30958176  1
  Pt  Pt245  1  0.37335586  0.69305350  0.30960497  1
  Pt  Pt246  1  0.37331680  0.30690639  0.69035534  1
  Pt  Pt247  1  0.62675836  0.30688359  0.69038569  1
  Pt  Pt248  1  0.62669888  0.30692914  0.30959791  1
  Pt  Pt249  1  0.37332365  0.30707272  0.30971627  1
  Pt  Pt250  1  0.25859560  0.37039438  0.62915588  1
  Pt  Pt251  1  0.25885345  0.62951589  0.62930336  1
  Pt  Pt252  1  0.74141616  0.37031585  0.62916981  1
  Pt  Pt253  1  0.74141026  0.62962563  0.62921864  1
  Pt  Pt254  1  0.25862552  0.62957335  0.37075727  1
  Pt  Pt255  1  0.25850312  0.37033739  0.37069335  1
  Pt  Pt256  1  0.74138138  0.37037824  0.37074258  1
  Pt  Pt257  1  0.74133359  0.62963707  0.37075180  1
  Pt  Pt258  1  0.37313123  0.36944466  0.75129137  1
  Pt  Pt259  1  0.62701417  0.36941680  0.75131637  1
  Pt  Pt260  1  0.62690277  0.63052146  0.75131291  1
  Pt  Pt261  1  0.37329348  0.63001133  0.75122588  1
  Pt  Pt262  1  0.37309788  0.36953225  0.24868123  1
  Pt  Pt263  1  0.62687716  0.36946497  0.24864937  1
  Pt  Pt264  1  0.62689275  0.63053650  0.24865236  1
  Pt  Pt265  1  0.37311749  0.63055191  0.24861982  1
  Pt  Pt266  1  0.37624919  0.24714626  0.62706423  1
  Pt  Pt267  1  0.62377520  0.24714460  0.62707133  1
  Pt  Pt268  1  0.37653815  0.75274218  0.62663736  1
  Pt  Pt269  1  0.62377495  0.75277507  0.62703271  1
  Pt  Pt270  1  0.37625231  0.24720682  0.37292461  1
  Pt  Pt271  1  0.62375315  0.24717017  0.37289324  1
  Pt  Pt272  1  0.62371701  0.75281840  0.37290494  1
  Pt  Pt273  1  0.37631110  0.75277437  0.37289623  1
  Pt  Pt274  1  0.19237103  0.56036618  0.50000390  1
  Pt  Pt275  1  0.19239756  0.43973020  0.50002664  1
  Pt  Pt276  1  0.80766899  0.56032936  0.50001775  1
  Pt  Pt277  1  0.80765489  0.43965892  0.49999513  1
  Pt  Pt278  1  0.25704661  0.56478584  0.68595552  1
  Pt  Pt279  1  0.74321106  0.56493478  0.68592496  1
  Pt  Pt280  1  0.25688285  0.43514415  0.68585448  1
  Pt  Pt281  1  0.74322292  0.43502824  0.68587578  1
  Pt  Pt282  1  0.25684457  0.56490945  0.31398514  1
  Pt  Pt283  1  0.74317037  0.56492182  0.31403951  1
  Pt  Pt284  1  0.74315008  0.43510440  0.31403547  1
  Pt  Pt285  1  0.25675618  0.43511297  0.31402126  1
  Pt  Pt286  1  0.25556686  0.68951330  0.56875959  1
  Pt  Pt287  1  0.74472347  0.68981986  0.56892926  1
  Pt  Pt288  1  0.25531912  0.68977447  0.43105478  1
  Pt  Pt289  1  0.74468862  0.68982216  0.43104412  1
  Pt  Pt290  1  0.25525084  0.31011947  0.56893441  1
  Pt  Pt291  1  0.74477663  0.31009483  0.56890592  1
  Pt  Pt292  1  0.74467768  0.31017298  0.43104086  1
  Pt  Pt293  1  0.25522510  0.31019025  0.43106372  1
  Pt  Pt294  1  0.31541348  0.56488868  0.75077747  1
  Pt  Pt295  1  0.31534749  0.56512262  0.24917624  1
  Pt  Pt296  1  0.31529821  0.43479370  0.75073640  1
  Pt  Pt297  1  0.31530146  0.43494040  0.24927745  1
  Pt  Pt298  1  0.68463506  0.56506696  0.75069724  1
  Pt  Pt299  1  0.68466364  0.56509042  0.24923567  1
  Pt  Pt300  1  0.68476956  0.43486903  0.75070338  1
  Pt  Pt301  1  0.68463624  0.43490684  0.24924052  1
  Pt  Pt302  1  0.43596413  0.69007376  0.75225619  1
  Pt  Pt303  1  0.43571834  0.69089660  0.24754712  1
  Pt  Pt304  1  0.56433536  0.69091781  0.75238102  1
  Pt  Pt305  1  0.56428622  0.69089175  0.24753729  1
  Pt  Pt306  1  0.43568044  0.30907412  0.75243362  1
  Pt  Pt307  1  0.43566165  0.30917654  0.24761371  1
  Pt  Pt308  1  0.56437479  0.30908784  0.75240485  1
  Pt  Pt309  1  0.56431857  0.30907632  0.24754758  1
  Pt  Pt310  1  0.43802048  0.81507899  0.49985590  1
  Pt  Pt311  1  0.56206091  0.81505499  0.50009571  1
  Pt  Pt312  1  0.43794910  0.18496288  0.49997029  1
  Pt  Pt313  1  0.56208829  0.18490751  0.49997715  1
  Pt  Pt314  1  0.50004454  0.56092257  0.81647782  1
  Pt  Pt315  1  0.50002787  0.43883872  0.81645764  1
  Pt  Pt316  1  0.49998827  0.56106428  0.18349495  1
  Pt  Pt317  1  0.50000304  0.43891909  0.18347336  1
  Pt  Pt318  1  0.49996702  0.81413095  0.56430540  1
  Pt  Pt319  1  0.50005742  0.81431384  0.43565961  1
  Pt  Pt320  1  0.50000368  0.18571454  0.56425566  1
  Pt  Pt321  1  0.50000457  0.18570732  0.43570311  1
