# generated using pymatgen
data_Ni112HPt209
_symmetry_space_group_name_H-M   'P 1'
_cell_length_a   30.00000000
_cell_length_b   30.00000000
_cell_length_c   30.00000000
_cell_angle_alpha   90.00000000
_cell_angle_beta   90.00000000
_cell_angle_gamma   90.00000000
_symmetry_Int_Tables_number   1
_chemical_formula_structural   Ni112HPt209
_chemical_formula_sum   'Ni112 H1 Pt209'
_cell_volume   27000.00000000
_cell_formula_units_Z   1
loop_
 _symmetry_equiv_pos_site_id
 _symmetry_equiv_pos_as_xyz
  1  'x, y, z'
loop_
 _atom_site_type_symbol
 _atom_site_label
 _atom_site_symmetry_multiplicity
 _atom_site_fract_x
 _atom_site_fract_y
 _atom_site_fract_z
 _atom_site_occupancy
  Ni  Ni0  1  0.43819373  0.50051643  0.43478477  1
  Ni  Ni1  1  0.43800177  0.50012649  0.56509675  1
  Ni  Ni2  1  0.56220302  0.50016447  0.56517461  1
  Ni  Ni3  1  0.56210721  0.50012640  0.43483522  1
  Ni  Ni4  1  0.43829355  0.56353833  0.62816457  1
  Ni  Ni5  1  0.56176436  0.56353331  0.62824981  1
  Ni  Ni6  1  0.43841206  0.43668289  0.62809797  1
  Ni  Ni7  1  0.43820501  0.56360818  0.37191113  1
  Ni  Ni8  1  0.56180722  0.43665305  0.62826848  1
  Ni  Ni9  1  0.56170616  0.56349957  0.37174658  1
  Ni  Ni10  1  0.43804658  0.43641261  0.37222333  1
  Ni  Ni11  1  0.56161344  0.43656704  0.37185121  1
  Ni  Ni12  1  0.43838883  0.37250113  0.56554800  1
  Ni  Ni13  1  0.43837387  0.37224521  0.43451480  1
  Ni  Ni14  1  0.43834937  0.62769016  0.56576798  1
  Ni  Ni15  1  0.43831669  0.62773821  0.43433565  1
  Ni  Ni16  1  0.56183737  0.37254446  0.56572099  1
  Ni  Ni17  1  0.56179088  0.37254467  0.43434046  1
  Ni  Ni18  1  0.56180371  0.62765088  0.56579816  1
  Ni  Ni19  1  0.56172273  0.62762087  0.43419729  1
  Ni  Ni20  1  0.31242759  0.50015624  0.43495306  1
  Ni  Ni21  1  0.31269875  0.50007143  0.56511212  1
  Ni  Ni22  1  0.68744719  0.50008385  0.56522467  1
  Ni  Ni23  1  0.68744148  0.50011416  0.43472015  1
  Ni  Ni24  1  0.43813159  0.49975371  0.30888923  1
  Ni  Ni25  1  0.43860409  0.50008162  0.69164624  1
  Ni  Ni26  1  0.56143582  0.50004357  0.69171681  1
  Ni  Ni27  1  0.56116682  0.49991659  0.30842751  1
  Ni  Ni28  1  0.31577371  0.56211142  0.62600842  1
  Ni  Ni29  1  0.31582955  0.43792414  0.62588553  1
  Ni  Ni30  1  0.31562034  0.56243305  0.37416543  1
  Ni  Ni31  1  0.68435500  0.56211703  0.62616911  1
  Ni  Ni32  1  0.31537396  0.43731680  0.37510024  1
  Ni  Ni33  1  0.68434029  0.43803278  0.62612806  1
  Ni  Ni34  1  0.68428182  0.56208012  0.37376230  1
  Ni  Ni35  1  0.68423197  0.43802675  0.37383821  1
  Ni  Ni36  1  0.31424263  0.37165020  0.43670139  1
  Ni  Ni37  1  0.31511153  0.37250119  0.56338976  1
  Ni  Ni38  1  0.31488706  0.62767469  0.56367509  1
  Ni  Ni39  1  0.31479832  0.62783386  0.43648034  1
  Ni  Ni40  1  0.68523571  0.37265314  0.56370402  1
  Ni  Ni41  1  0.68524816  0.62754352  0.56370837  1
  Ni  Ni42  1  0.68514222  0.37262763  0.43625883  1
  Ni  Ni43  1  0.68518909  0.62759235  0.43626895  1
  Ni  Ni44  1  0.43875048  0.37237825  0.31027589  1
  Ni  Ni45  1  0.43939431  0.37278755  0.69064601  1
  Ni  Ni46  1  0.43940209  0.62729804  0.69069295  1
  Ni  Ni47  1  0.43919724  0.62726975  0.30946296  1
  Ni  Ni48  1  0.56044990  0.37277447  0.30953334  1
  Ni  Ni49  1  0.56076912  0.37281403  0.69078236  1
  Ni  Ni50  1  0.56066908  0.62726492  0.69073580  1
  Ni  Ni51  1  0.56055598  0.62726411  0.30929437  1
  Ni  Ni52  1  0.43977493  0.68982365  0.62748717  1
  Ni  Ni53  1  0.56038317  0.68972323  0.62754085  1
  Ni  Ni54  1  0.43971083  0.68989975  0.37257578  1
  Ni  Ni55  1  0.56034275  0.68968230  0.37244912  1
  Ni  Ni56  1  0.43984179  0.31036272  0.62746467  1
  Ni  Ni57  1  0.56048505  0.31042140  0.62752054  1
  Ni  Ni58  1  0.43960232  0.30994022  0.37315424  1
  Ni  Ni59  1  0.56041753  0.31031375  0.37254308  1
  Ni  Ni60  1  0.31181337  0.49979229  0.30797600  1
  Ni  Ni61  1  0.31230543  0.49996935  0.69251291  1
  Ni  Ni62  1  0.68774015  0.50005132  0.69276459  1
  Ni  Ni63  1  0.68757667  0.50000792  0.30724010  1
  Ni  Ni64  1  0.43491382  0.24218532  0.43285441  1
  Ni  Ni65  1  0.43464984  0.24241736  0.56757668  1
  Ni  Ni66  1  0.43443089  0.75764922  0.56746509  1
  Ni  Ni67  1  0.43446403  0.75770763  0.43268090  1
  Ni  Ni68  1  0.56589921  0.24248085  0.56754723  1
  Ni  Ni69  1  0.56597613  0.24232638  0.43279708  1
  Ni  Ni70  1  0.56585800  0.75761882  0.56749017  1
  Ni  Ni71  1  0.56589456  0.75766414  0.43264521  1
  Ni  Ni72  1  0.31527752  0.62785710  0.31039871  1
  Ni  Ni73  1  0.31490039  0.37166964  0.31172089  1
  Ni  Ni74  1  0.31543722  0.62766050  0.68974603  1
  Ni  Ni75  1  0.31546744  0.37239696  0.68953845  1
  Ni  Ni76  1  0.68480032  0.37251226  0.68987848  1
  Ni  Ni77  1  0.68462533  0.37246795  0.31009247  1
  Ni  Ni78  1  0.68470342  0.62757670  0.68992078  1
  Ni  Ni79  1  0.68460076  0.62748247  0.31000735  1
  Ni  Ni80  1  0.31611231  0.69020469  0.62895761  1
  Ni  Ni81  1  0.31604433  0.69041367  0.37117882  1
  Ni  Ni82  1  0.68406928  0.69011242  0.62909551  1
  Ni  Ni83  1  0.31626240  0.30980391  0.62867916  1
  Ni  Ni84  1  0.68398980  0.69005699  0.37092580  1
  Ni  Ni85  1  0.31553437  0.30860616  0.37223780  1
  Ni  Ni86  1  0.68411015  0.31003683  0.62895963  1
  Ni  Ni87  1  0.68400090  0.31000393  0.37099724  1
  Ni  Ni88  1  0.19864682  0.50001956  0.56097561  1
  Ni  Ni89  1  0.19853723  0.50036164  0.43926440  1
  Ni  Ni90  1  0.80138157  0.50007674  0.56107232  1
  Ni  Ni91  1  0.80135233  0.50012897  0.43884361  1
  Ni  Ni92  1  0.31820636  0.25051347  0.43498410  1
  Ni  Ni93  1  0.31858808  0.25190368  0.56644393  1
  Ni  Ni94  1  0.31843544  0.74815430  0.56641401  1
  Ni  Ni95  1  0.31843195  0.74827723  0.43384894  1
  Ni  Ni96  1  0.68172895  0.25212102  0.43366597  1
  Ni  Ni97  1  0.68178875  0.25215169  0.56634547  1
  Ni  Ni98  1  0.68175084  0.74795662  0.56641698  1
  Ni  Ni99  1  0.68169227  0.74788883  0.43358065  1
  Ni  Ni100  1  0.43714224  0.25238868  0.68602563  1
  Ni  Ni101  1  0.43684070  0.25188105  0.31491717  1
  Ni  Ni102  1  0.43702886  0.74767156  0.68610205  1
  Ni  Ni103  1  0.43699257  0.74789496  0.31405955  1
  Ni  Ni104  1  0.56307431  0.25226425  0.31401772  1
  Ni  Ni105  1  0.56323439  0.25251706  0.68610769  1
  Ni  Ni106  1  0.56314296  0.74768054  0.68610506  1
  Ni  Ni107  1  0.56309654  0.74756906  0.31382437  1
  Ni  Ni108  1  0.44033209  0.49958446  0.18999881  1
  Ni  Ni109  1  0.44104187  0.49999808  0.81060375  1
  Ni  Ni110  1  0.55820971  0.49968167  0.18959685  1
  Ni  Ni111  1  0.55890525  0.50001150  0.81067236  1
  H  H112  1  0.22222629  0.27829965  0.40084922  1
  Pt  Pt113  1  0.50019123  0.50024355  0.50002745  1
  Pt  Pt114  1  0.43775825  0.56382941  0.50007417  1
  Pt  Pt115  1  0.56244868  0.56383219  0.50001466  1
  Pt  Pt116  1  0.43788030  0.43659620  0.50006046  1
  Pt  Pt117  1  0.56235718  0.43648294  0.50000417  1
  Pt  Pt118  1  0.50007618  0.56397001  0.56646444  1
  Pt  Pt119  1  0.50012064  0.43618669  0.56642759  1
  Pt  Pt120  1  0.50008164  0.56405793  0.43356848  1
  Pt  Pt121  1  0.49999745  0.43619482  0.43364580  1
  Pt  Pt122  1  0.62578804  0.50012754  0.49995560  1
  Pt  Pt123  1  0.37426181  0.50023265  0.50005214  1
  Pt  Pt124  1  0.50006163  0.50005293  0.62833901  1
  Pt  Pt125  1  0.49995649  0.50002060  0.37171977  1
  Pt  Pt126  1  0.50011224  0.37239578  0.50003582  1
  Pt  Pt127  1  0.50009690  0.62774820  0.50003370  1
  Pt  Pt128  1  0.62448514  0.56406027  0.56553806  1
  Pt  Pt129  1  0.37565733  0.56407972  0.56552392  1
  Pt  Pt130  1  0.37570859  0.43616580  0.56536179  1
  Pt  Pt131  1  0.62439561  0.43623070  0.56551744  1
  Pt  Pt132  1  0.62442914  0.56404507  0.43442047  1
  Pt  Pt133  1  0.37565618  0.56418830  0.43460969  1
  Pt  Pt134  1  0.37613187  0.43649360  0.43475347  1
  Pt  Pt135  1  0.62434151  0.43620353  0.43444640  1
  Pt  Pt136  1  0.37680377  0.50005151  0.62739060  1
  Pt  Pt137  1  0.62325270  0.50009326  0.62750447  1
  Pt  Pt138  1  0.62317875  0.50008164  0.37249035  1
  Pt  Pt139  1  0.37631751  0.50008019  0.37288466  1
  Pt  Pt140  1  0.37574511  0.37166338  0.49974421  1
  Pt  Pt141  1  0.62454799  0.37171220  0.50001067  1
  Pt  Pt142  1  0.37550558  0.62854671  0.50007100  1
  Pt  Pt143  1  0.62459338  0.62849325  0.50001980  1
  Pt  Pt144  1  0.50015043  0.37251630  0.62842553  1
  Pt  Pt145  1  0.50002883  0.62763085  0.62847308  1
  Pt  Pt146  1  0.49992838  0.37226948  0.37184747  1
  Pt  Pt147  1  0.49996838  0.62768174  0.37157590  1
  Pt  Pt148  1  0.31215168  0.56570339  0.50001994  1
  Pt  Pt149  1  0.31236650  0.43442246  0.49960710  1
  Pt  Pt150  1  0.68784758  0.56569111  0.49997242  1
  Pt  Pt151  1  0.68779119  0.43449857  0.49996507  1
  Pt  Pt152  1  0.50000707  0.56418127  0.69095429  1
  Pt  Pt153  1  0.49998063  0.43584260  0.69095161  1
  Pt  Pt154  1  0.49984013  0.56417321  0.30917709  1
  Pt  Pt155  1  0.49950478  0.43561730  0.30939417  1
  Pt  Pt156  1  0.43790024  0.69225595  0.50007263  1
  Pt  Pt157  1  0.56226555  0.69222743  0.50001759  1
  Pt  Pt158  1  0.43806026  0.30769709  0.50010652  1
  Pt  Pt159  1  0.56232679  0.30788052  0.50006844  1
  Pt  Pt160  1  0.50011299  0.69213315  0.56603198  1
  Pt  Pt161  1  0.50012248  0.69214287  0.43401067  1
  Pt  Pt162  1  0.50019245  0.30799599  0.56606331  1
  Pt  Pt163  1  0.50025977  0.30784987  0.43417013  1
  Pt  Pt164  1  0.37776132  0.37317104  0.62805342  1
  Pt  Pt165  1  0.62249889  0.37315765  0.62822710  1
  Pt  Pt166  1  0.37770538  0.62708308  0.62820609  1
  Pt  Pt167  1  0.62243103  0.62702258  0.62827168  1
  Pt  Pt168  1  0.62236388  0.37311162  0.37176888  1
  Pt  Pt169  1  0.37706193  0.37252407  0.37298097  1
  Pt  Pt170  1  0.37758548  0.62722289  0.37193738  1
  Pt  Pt171  1  0.62234840  0.62695496  0.37163990  1
  Pt  Pt172  1  0.62193513  0.56273094  0.68968684  1
  Pt  Pt173  1  0.37816131  0.56271875  0.68953649  1
  Pt  Pt174  1  0.37824162  0.43734748  0.68950063  1
  Pt  Pt175  1  0.62197980  0.43741452  0.68970319  1
  Pt  Pt176  1  0.37787082  0.56271609  0.31075936  1
  Pt  Pt177  1  0.62168354  0.56259649  0.31024571  1
  Pt  Pt178  1  0.37760620  0.43689727  0.31142924  1
  Pt  Pt179  1  0.62173307  0.43734035  0.31038041  1
  Pt  Pt180  1  0.37729201  0.68985394  0.56493107  1
  Pt  Pt181  1  0.62291880  0.68972423  0.56495502  1
  Pt  Pt182  1  0.37729627  0.68994623  0.43520495  1
  Pt  Pt183  1  0.62283204  0.68966642  0.43505016  1
  Pt  Pt184  1  0.62292887  0.31041174  0.56492202  1
  Pt  Pt185  1  0.37756517  0.31022525  0.56498720  1
  Pt  Pt186  1  0.62287544  0.31039879  0.43512430  1
  Pt  Pt187  1  0.37707245  0.30949002  0.43560303  1
  Pt  Pt188  1  0.25544789  0.49998131  0.50008825  1
  Pt  Pt189  1  0.74453035  0.50007041  0.49997310  1
  Pt  Pt190  1  0.49999547  0.49996135  0.75145524  1
  Pt  Pt191  1  0.49945987  0.49979818  0.24898234  1
  Pt  Pt192  1  0.50029810  0.24714290  0.50019286  1
  Pt  Pt193  1  0.50006291  0.75279533  0.50004052  1
  Pt  Pt194  1  0.24930050  0.56781830  0.56824971  1
  Pt  Pt195  1  0.75080739  0.56781225  0.56826232  1
  Pt  Pt196  1  0.24967919  0.43239012  0.56790042  1
  Pt  Pt197  1  0.75076179  0.43239820  0.56819608  1
  Pt  Pt198  1  0.24913917  0.56814869  0.43194484  1
  Pt  Pt199  1  0.75073171  0.56783188  0.43171399  1
  Pt  Pt200  1  0.75072306  0.43239551  0.43173356  1
  Pt  Pt201  1  0.24874982  0.43240884  0.43194971  1
  Pt  Pt202  1  0.30695610  0.69816112  0.50009105  1
  Pt  Pt203  1  0.69332968  0.69809459  0.50002039  1
  Pt  Pt204  1  0.30810471  0.30309228  0.49999214  1
  Pt  Pt205  1  0.69322595  0.30212275  0.49999305  1
  Pt  Pt206  1  0.50007316  0.69347413  0.69359065  1
  Pt  Pt207  1  0.49991516  0.69352563  0.30648698  1
  Pt  Pt208  1  0.50013496  0.30667686  0.69355376  1
  Pt  Pt209  1  0.49985045  0.30627383  0.30685283  1
  Pt  Pt210  1  0.43324310  0.56815677  0.76147549  1
  Pt  Pt211  1  0.43280611  0.56781132  0.23912561  1
  Pt  Pt212  1  0.56671401  0.56811804  0.76148259  1
  Pt  Pt213  1  0.56636665  0.56804627  0.23843833  1
  Pt  Pt214  1  0.43327244  0.43180552  0.76149211  1
  Pt  Pt215  1  0.43237720  0.43137397  0.23911862  1
  Pt  Pt216  1  0.56675054  0.43186841  0.76149894  1
  Pt  Pt217  1  0.56619001  0.43166651  0.23888210  1
  Pt  Pt218  1  0.25167417  0.49996743  0.62764794  1
  Pt  Pt219  1  0.74835089  0.50006207  0.62779953  1
  Pt  Pt220  1  0.25163715  0.50036703  0.37262674  1
  Pt  Pt221  1  0.74834020  0.50008030  0.37213335  1
  Pt  Pt222  1  0.24740840  0.63080521  0.50010029  1
  Pt  Pt223  1  0.24782280  0.36928854  0.49895134  1
  Pt  Pt224  1  0.75262140  0.36959521  0.49996128  1
  Pt  Pt225  1  0.75266126  0.63057904  0.50002429  1
  Pt  Pt226  1  0.62577502  0.50002052  0.75793849  1
  Pt  Pt227  1  0.37429798  0.49994445  0.75771652  1
  Pt  Pt228  1  0.37355283  0.49953647  0.24296423  1
  Pt  Pt229  1  0.62535445  0.49982383  0.24204102  1
  Pt  Pt230  1  0.37294639  0.24169087  0.50032167  1
  Pt  Pt231  1  0.62743140  0.24222284  0.50008081  1
  Pt  Pt232  1  0.37283956  0.75807125  0.50009552  1
  Pt  Pt233  1  0.62738953  0.75784680  0.50002180  1
  Pt  Pt234  1  0.50001465  0.37109906  0.75804786  1
  Pt  Pt235  1  0.50001082  0.62891760  0.75799293  1
  Pt  Pt236  1  0.49933456  0.37082841  0.24266064  1
  Pt  Pt237  1  0.49964453  0.62881458  0.24209542  1
  Pt  Pt238  1  0.50024255  0.24393671  0.63013224  1
  Pt  Pt239  1  0.50013108  0.75614738  0.63007984  1
  Pt  Pt240  1  0.50039599  0.24366107  0.37037658  1
  Pt  Pt241  1  0.50018663  0.75617675  0.37002601  1
  Pt  Pt242  1  0.62694613  0.69196082  0.69131048  1
  Pt  Pt243  1  0.37315440  0.69204063  0.69124290  1
  Pt  Pt244  1  0.62690607  0.69187856  0.30861523  1
  Pt  Pt245  1  0.37309905  0.69226204  0.30888230  1
  Pt  Pt246  1  0.37324014  0.30810061  0.69105441  1
  Pt  Pt247  1  0.62703873  0.30814596  0.69127033  1
  Pt  Pt248  1  0.62686074  0.30806980  0.30878927  1
  Pt  Pt249  1  0.37278975  0.30732550  0.31010607  1
  Pt  Pt250  1  0.25861003  0.37116666  0.62942576  1
  Pt  Pt251  1  0.25848588  0.62891263  0.62979754  1
  Pt  Pt252  1  0.74169098  0.37136854  0.62980094  1
  Pt  Pt253  1  0.74166985  0.62877840  0.62991569  1
  Pt  Pt254  1  0.25837561  0.62921327  0.37036291  1
  Pt  Pt255  1  0.25781340  0.36999841  0.37164215  1
  Pt  Pt256  1  0.74156250  0.37134401  0.37014350  1
  Pt  Pt257  1  0.74156486  0.62875132  0.37002266  1
  Pt  Pt258  1  0.37257082  0.37022717  0.75231235  1
  Pt  Pt259  1  0.62750948  0.37028113  0.75249828  1
  Pt  Pt260  1  0.62741718  0.62977652  0.75253227  1
  Pt  Pt261  1  0.37257047  0.62979273  0.75242077  1
  Pt  Pt262  1  0.37187273  0.36962845  0.24894325  1
  Pt  Pt263  1  0.62722811  0.37024084  0.24759694  1
  Pt  Pt264  1  0.62718641  0.62958899  0.24746539  1
  Pt  Pt265  1  0.37244277  0.62991226  0.24777231  1
  Pt  Pt266  1  0.37659412  0.24846683  0.62771154  1
  Pt  Pt267  1  0.62381455  0.24876483  0.62766873  1
  Pt  Pt268  1  0.37650197  0.75149060  0.62769872  1
  Pt  Pt269  1  0.62372050  0.75136113  0.62772358  1
  Pt  Pt270  1  0.37638578  0.24756981  0.37338850  1
  Pt  Pt271  1  0.62368293  0.24870750  0.37241100  1
  Pt  Pt272  1  0.62361161  0.75128677  0.37225576  1
  Pt  Pt273  1  0.37645018  0.75162613  0.37251065  1
  Pt  Pt274  1  0.19187279  0.56041284  0.50016077  1
  Pt  Pt275  1  0.19159021  0.43974333  0.50016607  1
  Pt  Pt276  1  0.80825073  0.56019390  0.49998936  1
  Pt  Pt277  1  0.80825599  0.43995899  0.49996479  1
  Pt  Pt278  1  0.25648425  0.56435210  0.68657342  1
  Pt  Pt279  1  0.74369201  0.56435287  0.68687160  1
  Pt  Pt280  1  0.25644323  0.43547558  0.68642280  1
  Pt  Pt281  1  0.74370348  0.43573305  0.68681930  1
  Pt  Pt282  1  0.25624461  0.56462817  0.31348924  1
  Pt  Pt283  1  0.74353966  0.56432423  0.31303506  1
  Pt  Pt284  1  0.74353030  0.43571690  0.31315035  1
  Pt  Pt285  1  0.25584376  0.43500926  0.31503899  1
  Pt  Pt286  1  0.25554311  0.68903286  0.56939822  1
  Pt  Pt287  1  0.74455497  0.68879250  0.56940791  1
  Pt  Pt288  1  0.25550219  0.68926413  0.43083601  1
  Pt  Pt289  1  0.74451837  0.68874655  0.43060118  1
  Pt  Pt290  1  0.25585340  0.31128495  0.56871572  1
  Pt  Pt291  1  0.74458298  0.31134248  0.56929190  1
  Pt  Pt292  1  0.74450429  0.31134528  0.43066035  1
  Pt  Pt293  1  0.25387023  0.30764672  0.43077535  1
  Pt  Pt294  1  0.31473833  0.56452723  0.75167302  1
  Pt  Pt295  1  0.31456315  0.56460289  0.24851757  1
  Pt  Pt296  1  0.31467252  0.43544306  0.75151370  1
  Pt  Pt297  1  0.31393472  0.43479865  0.24968337  1
  Pt  Pt298  1  0.68533911  0.56458819  0.75191631  1
  Pt  Pt299  1  0.68508472  0.56436061  0.24804033  1
  Pt  Pt300  1  0.68540611  0.43545882  0.75192411  1
  Pt  Pt301  1  0.68514644  0.43546401  0.24811769  1
  Pt  Pt302  1  0.43551809  0.68981199  0.75331260  1
  Pt  Pt303  1  0.43539306  0.68988858  0.24679752  1
  Pt  Pt304  1  0.56454501  0.68983591  0.75336272  1
  Pt  Pt305  1  0.56433617  0.68964241  0.24666058  1
  Pt  Pt306  1  0.43550091  0.31023244  0.75320682  1
  Pt  Pt307  1  0.43489941  0.30977841  0.24774173  1
  Pt  Pt308  1  0.56462889  0.31024664  0.75338215  1
  Pt  Pt309  1  0.56427166  0.31033202  0.24694519  1
  Pt  Pt310  1  0.43817934  0.81387049  0.50009860  1
  Pt  Pt311  1  0.56209546  0.81372096  0.50009660  1
  Pt  Pt312  1  0.43844037  0.18607684  0.50035925  1
  Pt  Pt313  1  0.56231097  0.18617211  0.50029844  1
  Pt  Pt314  1  0.49998996  0.56071171  0.81784390  1
  Pt  Pt315  1  0.49999866  0.43927748  0.81788373  1
  Pt  Pt316  1  0.49927562  0.56043385  0.18246892  1
  Pt  Pt317  1  0.49916024  0.43889474  0.18282995  1
  Pt  Pt318  1  0.50015219  0.81268714  0.56469757  1
  Pt  Pt319  1  0.50017015  0.81268753  0.43547534  1
  Pt  Pt320  1  0.50031630  0.18728083  0.56490240  1
  Pt  Pt321  1  0.50040349  0.18704471  0.43573301  1
