# generated using pymatgen
data_Ni112HPt209
_symmetry_space_group_name_H-M   'P 1'
_cell_length_a   30.00000000
_cell_length_b   30.00000000
_cell_length_c   30.00000000
_cell_angle_alpha   90.00000000
_cell_angle_beta   90.00000000
_cell_angle_gamma   90.00000000
_symmetry_Int_Tables_number   1
_chemical_formula_structural   Ni112HPt209
_chemical_formula_sum   'Ni112 H1 Pt209'
_cell_volume   27000.00000000
_cell_formula_units_Z   1
loop_
 _symmetry_equiv_pos_site_id
 _symmetry_equiv_pos_as_xyz
  1  'x, y, z'
loop_
 _atom_site_type_symbol
 _atom_site_label
 _atom_site_symmetry_multiplicity
 _atom_site_fract_x
 _atom_site_fract_y
 _atom_site_fract_z
 _atom_site_occupancy
  Ni  Ni0  1  0.43792921  0.49987456  0.43505230  1
  Ni  Ni1  1  0.43781940  0.49967935  0.56502534  1
  Ni  Ni2  1  0.56177468  0.49972500  0.56499543  1
  Ni  Ni3  1  0.56195823  0.49997995  0.43511879  1
  Ni  Ni4  1  0.43811711  0.56345330  0.62805705  1
  Ni  Ni5  1  0.56162921  0.56355483  0.62755459  1
  Ni  Ni6  1  0.43827640  0.43624917  0.62802738  1
  Ni  Ni7  1  0.43824735  0.56365353  0.37217983  1
  Ni  Ni8  1  0.56168532  0.43627345  0.62793805  1
  Ni  Ni9  1  0.56166000  0.56365861  0.37221925  1
  Ni  Ni10  1  0.43829437  0.43633470  0.37213698  1
  Ni  Ni11  1  0.56166732  0.43641699  0.37222055  1
  Ni  Ni12  1  0.43824496  0.37199175  0.56565475  1
  Ni  Ni13  1  0.43823006  0.37197913  0.43434582  1
  Ni  Ni14  1  0.43807546  0.62779365  0.56555722  1
  Ni  Ni15  1  0.43816138  0.62793357  0.43440544  1
  Ni  Ni16  1  0.56171706  0.37201986  0.56566437  1
  Ni  Ni17  1  0.56168543  0.37204142  0.43439754  1
  Ni  Ni18  1  0.56072565  0.62695229  0.56552439  1
  Ni  Ni19  1  0.56152651  0.62793802  0.43466634  1
  Ni  Ni20  1  0.31263914  0.49992117  0.43484198  1
  Ni  Ni21  1  0.31264132  0.49987671  0.56504659  1
  Ni  Ni22  1  0.68724587  0.49982073  0.56503821  1
  Ni  Ni23  1  0.68730352  0.50006887  0.43499217  1
  Ni  Ni24  1  0.43878193  0.50003980  0.30891661  1
  Ni  Ni25  1  0.43872148  0.50002147  0.69126291  1
  Ni  Ni26  1  0.56152391  0.50022570  0.69095738  1
  Ni  Ni27  1  0.56127008  0.50010332  0.30900018  1
  Ni  Ni28  1  0.31576078  0.56202185  0.62583589  1
  Ni  Ni29  1  0.31581437  0.43786635  0.62593207  1
  Ni  Ni30  1  0.31578335  0.56204770  0.37409580  1
  Ni  Ni31  1  0.68420662  0.56216323  0.62526873  1
  Ni  Ni32  1  0.31580635  0.43787765  0.37406455  1
  Ni  Ni33  1  0.68419810  0.43778609  0.62584069  1
  Ni  Ni34  1  0.68420420  0.56221094  0.37447076  1
  Ni  Ni35  1  0.68415378  0.43798697  0.37422911  1
  Ni  Ni36  1  0.31474437  0.37208005  0.43635393  1
  Ni  Ni37  1  0.31476483  0.37210751  0.56361175  1
  Ni  Ni38  1  0.31469889  0.62774984  0.56347324  1
  Ni  Ni39  1  0.31469605  0.62779899  0.43642356  1
  Ni  Ni40  1  0.68522239  0.37212379  0.56353685  1
  Ni  Ni41  1  0.68547914  0.62807185  0.56323685  1
  Ni  Ni42  1  0.68520689  0.37217368  0.43649200  1
  Ni  Ni43  1  0.68527034  0.62768864  0.43678072  1
  Ni  Ni44  1  0.43940372  0.37250500  0.30959973  1
  Ni  Ni45  1  0.43942734  0.37252742  0.69048100  1
  Ni  Ni46  1  0.43940041  0.62752293  0.69015387  1
  Ni  Ni47  1  0.43931426  0.62756622  0.30965305  1
  Ni  Ni48  1  0.56067588  0.37252654  0.30969139  1
  Ni  Ni49  1  0.56072754  0.37247985  0.69044248  1
  Ni  Ni50  1  0.56095395  0.62785130  0.68945495  1
  Ni  Ni51  1  0.56067520  0.62758343  0.30980863  1
  Ni  Ni52  1  0.43942896  0.69012521  0.62732862  1
  Ni  Ni53  1  0.56065974  0.69051005  0.62621352  1
  Ni  Ni54  1  0.43956551  0.69014863  0.37263794  1
  Ni  Ni55  1  0.56033550  0.69009634  0.37288085  1
  Ni  Ni56  1  0.43967928  0.30989697  0.62744921  1
  Ni  Ni57  1  0.56036780  0.30988737  0.62741178  1
  Ni  Ni58  1  0.43964321  0.30983594  0.37257457  1
  Ni  Ni59  1  0.56038164  0.30988342  0.37267900  1
  Ni  Ni60  1  0.31240062  0.49998967  0.30756851  1
  Ni  Ni61  1  0.31232409  0.50001173  0.69245008  1
  Ni  Ni62  1  0.68798612  0.50008415  0.69213350  1
  Ni  Ni63  1  0.68768503  0.50013883  0.30776233  1
  Ni  Ni64  1  0.43412846  0.24189103  0.43258372  1
  Ni  Ni65  1  0.43417469  0.24200521  0.56741163  1
  Ni  Ni66  1  0.43381078  0.75818162  0.56713794  1
  Ni  Ni67  1  0.43405155  0.75803189  0.43252084  1
  Ni  Ni68  1  0.56576671  0.24198669  0.56741715  1
  Ni  Ni69  1  0.56581689  0.24187821  0.43258284  1
  Ni  Ni70  1  0.56510015  0.75858397  0.56751201  1
  Ni  Ni71  1  0.56549791  0.75798764  0.43280610  1
  Ni  Ni72  1  0.31547802  0.62783614  0.31048615  1
  Ni  Ni73  1  0.31552936  0.37218301  0.31041226  1
  Ni  Ni74  1  0.31542724  0.62780960  0.68949596  1
  Ni  Ni75  1  0.31548861  0.37218891  0.68963126  1
  Ni  Ni76  1  0.68455421  0.37212176  0.68947573  1
  Ni  Ni77  1  0.68453421  0.37221943  0.31061124  1
  Ni  Ni78  1  0.68489945  0.62815042  0.68819991  1
  Ni  Ni79  1  0.68457495  0.62779651  0.31088303  1
  Ni  Ni80  1  0.31588021  0.69048189  0.62873123  1
  Ni  Ni81  1  0.31585702  0.69048937  0.37114199  1
  Ni  Ni82  1  0.68422081  0.69076135  0.62782280  1
  Ni  Ni83  1  0.31596370  0.30943852  0.62890640  1
  Ni  Ni84  1  0.68406450  0.69029934  0.37179152  1
  Ni  Ni85  1  0.31595571  0.30943606  0.37112205  1
  Ni  Ni86  1  0.68404738  0.30949429  0.62876473  1
  Ni  Ni87  1  0.68404088  0.30948228  0.37128053  1
  Ni  Ni88  1  0.19876720  0.49991121  0.56094158  1
  Ni  Ni89  1  0.19874151  0.49992930  0.43899870  1
  Ni  Ni90  1  0.80152958  0.49968498  0.56086849  1
  Ni  Ni91  1  0.80134996  0.50010188  0.43902680  1
  Ni  Ni92  1  0.31807739  0.25151948  0.43368615  1
  Ni  Ni93  1  0.31814937  0.25152899  0.56632395  1
  Ni  Ni94  1  0.31798159  0.74846488  0.56612875  1
  Ni  Ni95  1  0.31791688  0.74843507  0.43375251  1
  Ni  Ni96  1  0.68192436  0.25147367  0.43383564  1
  Ni  Ni97  1  0.68184328  0.25153703  0.56622929  1
  Ni  Ni98  1  0.68379373  0.74948426  0.56620380  1
  Ni  Ni99  1  0.68179427  0.74813337  0.43408712  1
  Ni  Ni100  1  0.43693101  0.25192826  0.68595161  1
  Ni  Ni101  1  0.43691690  0.25179458  0.31411402  1
  Ni  Ni102  1  0.43680399  0.74814303  0.68574075  1
  Ni  Ni103  1  0.43684717  0.74819481  0.31415653  1
  Ni  Ni104  1  0.56315977  0.25185706  0.31419312  1
  Ni  Ni105  1  0.56311461  0.25188431  0.68587485  1
  Ni  Ni106  1  0.56327514  0.74825261  0.68467810  1
  Ni  Ni107  1  0.56326811  0.74816908  0.31455056  1
  Ni  Ni108  1  0.44139527  0.50009907  0.18987515  1
  Ni  Ni109  1  0.44149223  0.50033942  0.81005390  1
  Ni  Ni110  1  0.55885901  0.50011484  0.18990821  1
  Ni  Ni111  1  0.55915292  0.50041484  0.80991049  1
  H  H112  1  0.71682015  0.78444775  0.57485090  1
  Pt  Pt113  1  0.49979015  0.49975087  0.49992264  1
  Pt  Pt114  1  0.43751854  0.56367556  0.49992736  1
  Pt  Pt115  1  0.56199122  0.56362592  0.50012641  1
  Pt  Pt116  1  0.43759769  0.43593973  0.49993902  1
  Pt  Pt117  1  0.56219211  0.43604815  0.50003445  1
  Pt  Pt118  1  0.49934422  0.56348040  0.56640955  1
  Pt  Pt119  1  0.49989119  0.43575949  0.56633577  1
  Pt  Pt120  1  0.49988329  0.56416163  0.43374673  1
  Pt  Pt121  1  0.49997215  0.43579606  0.43371907  1
  Pt  Pt122  1  0.62555236  0.49990589  0.49999725  1
  Pt  Pt123  1  0.37422278  0.49981153  0.49993384  1
  Pt  Pt124  1  0.49995562  0.49978624  0.62825160  1
  Pt  Pt125  1  0.49992858  0.50007885  0.37207866  1
  Pt  Pt126  1  0.49993632  0.37191288  0.49999530  1
  Pt  Pt127  1  0.49973903  0.62784995  0.50009547  1
  Pt  Pt128  1  0.62416022  0.56383888  0.56530355  1
  Pt  Pt129  1  0.37557126  0.56395817  0.56539323  1
  Pt  Pt130  1  0.37561899  0.43577161  0.56544946  1
  Pt  Pt131  1  0.62430795  0.43578532  0.56534868  1
  Pt  Pt132  1  0.62425682  0.56411404  0.43479143  1
  Pt  Pt133  1  0.37556030  0.56405022  0.43459011  1
  Pt  Pt134  1  0.37554940  0.43578062  0.43455227  1
  Pt  Pt135  1  0.62432235  0.43589441  0.43464999  1
  Pt  Pt136  1  0.37682274  0.49989594  0.62722904  1
  Pt  Pt137  1  0.62313922  0.49987890  0.62703284  1
  Pt  Pt138  1  0.62301761  0.50007317  0.37298357  1
  Pt  Pt139  1  0.37692560  0.49998690  0.37287016  1
  Pt  Pt140  1  0.37540943  0.37120821  0.49999020  1
  Pt  Pt141  1  0.62449455  0.37128677  0.49997846  1
  Pt  Pt142  1  0.37538295  0.62860480  0.49994174  1
  Pt  Pt143  1  0.62406398  0.62847190  0.50052689  1
  Pt  Pt144  1  0.50001765  0.37211589  0.62832516  1
  Pt  Pt145  1  0.49991366  0.62789770  0.62793010  1
  Pt  Pt146  1  0.49998810  0.37208937  0.37174828  1
  Pt  Pt147  1  0.49992000  0.62797004  0.37181165  1
  Pt  Pt148  1  0.31217623  0.56560366  0.49997395  1
  Pt  Pt149  1  0.31213591  0.43417371  0.49998259  1
  Pt  Pt150  1  0.68768976  0.56557065  0.50012880  1
  Pt  Pt151  1  0.68779398  0.43433288  0.49997194  1
  Pt  Pt152  1  0.50020489  0.56445923  0.69039611  1
  Pt  Pt153  1  0.50014465  0.43565474  0.69075754  1
  Pt  Pt154  1  0.50000927  0.56439317  0.30949381  1
  Pt  Pt155  1  0.50004084  0.43578341  0.30945263  1
  Pt  Pt156  1  0.43762047  0.69252701  0.49993478  1
  Pt  Pt157  1  0.56189531  0.69250498  0.50031432  1
  Pt  Pt158  1  0.43775734  0.30740511  0.50000494  1
  Pt  Pt159  1  0.56215744  0.30742372  0.49998095  1
  Pt  Pt160  1  0.49964092  0.69248618  0.56584826  1
  Pt  Pt161  1  0.49987291  0.69242364  0.43414413  1
  Pt  Pt162  1  0.49997528  0.30749061  0.56596804  1
  Pt  Pt163  1  0.49995625  0.30746589  0.43401460  1
  Pt  Pt164  1  0.37757714  0.37272103  0.62803887  1
  Pt  Pt165  1  0.62240459  0.37272608  0.62795523  1
  Pt  Pt166  1  0.37749383  0.62719352  0.62789142  1
  Pt  Pt167  1  0.62241408  0.62769156  0.62676456  1
  Pt  Pt168  1  0.62237878  0.37277863  0.37213398  1
  Pt  Pt169  1  0.37761206  0.37269540  0.37202930  1
  Pt  Pt170  1  0.37754713  0.62725615  0.37208335  1
  Pt  Pt171  1  0.62225449  0.62724802  0.37239738  1
  Pt  Pt172  1  0.62190851  0.56319304  0.68843626  1
  Pt  Pt173  1  0.37824409  0.56283842  0.68922085  1
  Pt  Pt174  1  0.37831365  0.43715639  0.68931893  1
  Pt  Pt175  1  0.62173507  0.43719091  0.68915462  1
  Pt  Pt176  1  0.37833178  0.56280142  0.31082344  1
  Pt  Pt177  1  0.62169617  0.56292885  0.31102099  1
  Pt  Pt178  1  0.37836422  0.43721453  0.31080232  1
  Pt  Pt179  1  0.62166636  0.43730341  0.31091833  1
  Pt  Pt180  1  0.37692723  0.69007289  0.56479121  1
  Pt  Pt181  1  0.62313833  0.69114115  0.56432845  1
  Pt  Pt182  1  0.37694196  0.69011434  0.43512165  1
  Pt  Pt183  1  0.62265683  0.69001359  0.43550397  1
  Pt  Pt184  1  0.62288209  0.30988094  0.56484521  1
  Pt  Pt185  1  0.37703421  0.30983191  0.56489474  1
  Pt  Pt186  1  0.62289330  0.30982867  0.43517883  1
  Pt  Pt187  1  0.37706303  0.30979693  0.43514220  1
  Pt  Pt188  1  0.25560839  0.49992700  0.49994345  1
  Pt  Pt189  1  0.74446286  0.49998185  0.49999854  1
  Pt  Pt190  1  0.50023051  0.50021773  0.75082554  1
  Pt  Pt191  1  0.50010310  0.50011456  0.24913106  1
  Pt  Pt192  1  0.49997613  0.24691534  0.49998733  1
  Pt  Pt193  1  0.49981517  0.75313631  0.49998824  1
  Pt  Pt194  1  0.24924137  0.56777635  0.56815190  1
  Pt  Pt195  1  0.75084923  0.56734723  0.56808909  1
  Pt  Pt196  1  0.24929805  0.43205551  0.56818403  1
  Pt  Pt197  1  0.75082205  0.43194934  0.56805784  1
  Pt  Pt198  1  0.24923506  0.56782231  0.43178189  1
  Pt  Pt199  1  0.75080198  0.56794699  0.43206189  1
  Pt  Pt200  1  0.75072703  0.43223143  0.43175079  1
  Pt  Pt201  1  0.24926549  0.43206257  0.43171951  1
  Pt  Pt202  1  0.30669135  0.69826933  0.49995911  1
  Pt  Pt203  1  0.69181907  0.69695582  0.49996818  1
  Pt  Pt204  1  0.30672237  0.30158246  0.49998329  1
  Pt  Pt205  1  0.69315657  0.30171981  0.50001103  1
  Pt  Pt206  1  0.50018882  0.69404556  0.69275752  1
  Pt  Pt207  1  0.50001331  0.69399561  0.30674151  1
  Pt  Pt208  1  0.50004959  0.30618449  0.69337526  1
  Pt  Pt209  1  0.50002666  0.30612916  0.30673184  1
  Pt  Pt210  1  0.43356907  0.56854307  0.76089831  1
  Pt  Pt211  1  0.43343594  0.56839831  0.23892259  1
  Pt  Pt212  1  0.56708657  0.56866450  0.76069676  1
  Pt  Pt213  1  0.56676180  0.56841177  0.23901472  1
  Pt  Pt214  1  0.43348971  0.43181462  0.76116365  1
  Pt  Pt215  1  0.43343804  0.43177515  0.23888202  1
  Pt  Pt216  1  0.56693511  0.43192601  0.76112642  1
  Pt  Pt217  1  0.56671688  0.43181315  0.23896703  1
  Pt  Pt218  1  0.25168872  0.49993178  0.62763302  1
  Pt  Pt219  1  0.74832239  0.49967973  0.62744485  1
  Pt  Pt220  1  0.25170512  0.49997898  0.37233666  1
  Pt  Pt221  1  0.74827418  0.50009710  0.37248336  1
  Pt  Pt222  1  0.24735661  0.63065299  0.49998159  1
  Pt  Pt223  1  0.24737341  0.36919321  0.49997604  1
  Pt  Pt224  1  0.75257243  0.36926106  0.49987912  1
  Pt  Pt225  1  0.75257798  0.63060584  0.50075316  1
  Pt  Pt226  1  0.62572373  0.50031514  0.75675651  1
  Pt  Pt227  1  0.37470681  0.50018520  0.75728211  1
  Pt  Pt228  1  0.37461898  0.50007998  0.24277823  1
  Pt  Pt229  1  0.62553135  0.50011463  0.24292516  1
  Pt  Pt230  1  0.37252877  0.24168242  0.50001325  1
  Pt  Pt231  1  0.62739772  0.24171893  0.50001237  1
  Pt  Pt232  1  0.37235888  0.75831178  0.49988717  1
  Pt  Pt233  1  0.62720936  0.75839511  0.50021335  1
  Pt  Pt234  1  0.50023912  0.37101466  0.75777497  1
  Pt  Pt235  1  0.50033574  0.62942049  0.75714281  1
  Pt  Pt236  1  0.50007024  0.37091345  0.24241731  1
  Pt  Pt237  1  0.50012635  0.62927510  0.24247736  1
  Pt  Pt238  1  0.49998910  0.24348637  0.62990439  1
  Pt  Pt239  1  0.49954913  0.75666138  0.62943851  1
  Pt  Pt240  1  0.49997576  0.24344401  0.37015410  1
  Pt  Pt241  1  0.49987212  0.75645804  0.37025659  1
  Pt  Pt242  1  0.62714197  0.69263307  0.68982513  1
  Pt  Pt243  1  0.37303398  0.69233097  0.69086655  1
  Pt  Pt244  1  0.62700320  0.69229312  0.30946910  1
  Pt  Pt245  1  0.37309648  0.69235887  0.30904632  1
  Pt  Pt246  1  0.37316430  0.30774435  0.69107435  1
  Pt  Pt247  1  0.62691588  0.30763989  0.69099309  1
  Pt  Pt248  1  0.62690504  0.30765569  0.30914446  1
  Pt  Pt249  1  0.37315124  0.30764288  0.30897664  1
  Pt  Pt250  1  0.25850904  0.37092875  0.62969069  1
  Pt  Pt251  1  0.25846861  0.62899653  0.62952391  1
  Pt  Pt252  1  0.74152357  0.37091000  0.62955093  1
  Pt  Pt253  1  0.74200458  0.62957213  0.62823116  1
  Pt  Pt254  1  0.25846511  0.62901205  0.37036391  1
  Pt  Pt255  1  0.25849172  0.37089428  0.37025811  1
  Pt  Pt256  1  0.74154255  0.37092448  0.37049381  1
  Pt  Pt257  1  0.74173366  0.62906330  0.37066139  1
  Pt  Pt258  1  0.37284831  0.37004556  0.75213676  1
  Pt  Pt259  1  0.62730593  0.37000050  0.75203193  1
  Pt  Pt260  1  0.62760074  0.63035750  0.75089882  1
  Pt  Pt261  1  0.37279410  0.63009862  0.75198982  1
  Pt  Pt262  1  0.37289313  0.36999897  0.24796322  1
  Pt  Pt263  1  0.62725345  0.37003180  0.24813015  1
  Pt  Pt264  1  0.62733464  0.63014196  0.24826195  1
  Pt  Pt265  1  0.37280079  0.63006266  0.24798175  1
  Pt  Pt266  1  0.37630567  0.24815374  0.62760990  1
  Pt  Pt267  1  0.62375031  0.24811726  0.62748819  1
  Pt  Pt268  1  0.37607743  0.75192921  0.62741805  1
  Pt  Pt269  1  0.62421533  0.75278982  0.62668657  1
  Pt  Pt270  1  0.37622345  0.24807092  0.37244374  1
  Pt  Pt271  1  0.62382027  0.24803480  0.37256273  1
  Pt  Pt272  1  0.62373941  0.75184286  0.37293309  1
  Pt  Pt273  1  0.37607630  0.75191578  0.37248039  1
  Pt  Pt274  1  0.19181156  0.56017035  0.49997115  1
  Pt  Pt275  1  0.19187833  0.43966760  0.49996830  1
  Pt  Pt276  1  0.80838218  0.56015559  0.50002332  1
  Pt  Pt277  1  0.80820884  0.43971809  0.49989226  1
  Pt  Pt278  1  0.25653690  0.56449396  0.68643071  1
  Pt  Pt279  1  0.74367624  0.56499117  0.68528581  1
  Pt  Pt280  1  0.25664522  0.43546157  0.68657313  1
  Pt  Pt281  1  0.74355850  0.43536730  0.68644728  1
  Pt  Pt282  1  0.25656988  0.56446262  0.31349534  1
  Pt  Pt283  1  0.74348552  0.56459539  0.31378339  1
  Pt  Pt284  1  0.74337481  0.43556494  0.31371209  1
  Pt  Pt285  1  0.25660794  0.43553275  0.31345974  1
  Pt  Pt286  1  0.25527412  0.68915801  0.56918374  1
  Pt  Pt287  1  0.74513447  0.69064544  0.56842851  1
  Pt  Pt288  1  0.25521865  0.68914081  0.43075479  1
  Pt  Pt289  1  0.74483870  0.68896465  0.43136461  1
  Pt  Pt290  1  0.25539550  0.31078274  0.56929315  1
  Pt  Pt291  1  0.74469894  0.31079002  0.56918871  1
  Pt  Pt292  1  0.74470128  0.31075348  0.43080675  1
  Pt  Pt293  1  0.25531721  0.31083200  0.43073279  1
  Pt  Pt294  1  0.31499118  0.56469576  0.75138506  1
  Pt  Pt295  1  0.31506962  0.56468680  0.24861896  1
  Pt  Pt296  1  0.31510763  0.43549678  0.75155343  1
  Pt  Pt297  1  0.31516440  0.43535924  0.24858473  1
  Pt  Pt298  1  0.68533505  0.56502757  0.75033551  1
  Pt  Pt299  1  0.68502980  0.56473491  0.24890714  1
  Pt  Pt300  1  0.68503245  0.43540751  0.75122070  1
  Pt  Pt301  1  0.68499956  0.43542185  0.24879142  1
  Pt  Pt302  1  0.43573852  0.69012689  0.75265346  1
  Pt  Pt303  1  0.43555761  0.69020623  0.24704227  1
  Pt  Pt304  1  0.56484183  0.69045744  0.75205005  1
  Pt  Pt305  1  0.56463188  0.69031946  0.24732137  1
  Pt  Pt306  1  0.43569009  0.31000285  0.75307088  1
  Pt  Pt307  1  0.43563086  0.30982617  0.24700859  1
  Pt  Pt308  1  0.56452086  0.30985091  0.75301387  1
  Pt  Pt309  1  0.56451284  0.30988293  0.24706867  1
  Pt  Pt310  1  0.43764761  0.81412448  0.49971608  1
  Pt  Pt311  1  0.56173486  0.81422120  0.50002338  1
  Pt  Pt312  1  0.43790980  0.18595196  0.49999018  1
  Pt  Pt313  1  0.56208666  0.18592634  0.50002940  1
  Pt  Pt314  1  0.50040370  0.56121401  0.81708808  1
  Pt  Pt315  1  0.50029828  0.43953595  0.81744311  1
  Pt  Pt316  1  0.50015111  0.56099782  0.18261122  1
  Pt  Pt317  1  0.50014028  0.43920467  0.18258337  1
  Pt  Pt318  1  0.49937555  0.81348671  0.56430015  1
  Pt  Pt319  1  0.49976772  0.81315341  0.43543662  1
  Pt  Pt320  1  0.49995195  0.18698515  0.56455718  1
  Pt  Pt321  1  0.50000615  0.18690515  0.43548823  1
