# generated using pymatgen
data_Ni112HPt209
_symmetry_space_group_name_H-M   'P 1'
_cell_length_a   30.00000000
_cell_length_b   30.00000000
_cell_length_c   30.00000000
_cell_angle_alpha   90.00000000
_cell_angle_beta   90.00000000
_cell_angle_gamma   90.00000000
_symmetry_Int_Tables_number   1
_chemical_formula_structural   Ni112HPt209
_chemical_formula_sum   'Ni112 H1 Pt209'
_cell_volume   27000.00000000
_cell_formula_units_Z   1
loop_
 _symmetry_equiv_pos_site_id
 _symmetry_equiv_pos_as_xyz
  1  'x, y, z'
loop_
 _atom_site_type_symbol
 _atom_site_label
 _atom_site_symmetry_multiplicity
 _atom_site_fract_x
 _atom_site_fract_y
 _atom_site_fract_z
 _atom_site_occupancy
  Ni  Ni0  1  0.43808106  0.50003439  0.43516582  1
  Ni  Ni1  1  0.43805098  0.49996188  0.56481284  1
  Ni  Ni2  1  0.56193296  0.49999407  0.56477566  1
  Ni  Ni3  1  0.56193881  0.50007127  0.43521711  1
  Ni  Ni4  1  0.43831745  0.56395762  0.62752352  1
  Ni  Ni5  1  0.56169575  0.56390570  0.62749490  1
  Ni  Ni6  1  0.43828530  0.43607406  0.62751715  1
  Ni  Ni7  1  0.43836943  0.56391807  0.37245288  1
  Ni  Ni8  1  0.56171811  0.43605960  0.62748192  1
  Ni  Ni9  1  0.56202158  0.56411664  0.37214086  1
  Ni  Ni10  1  0.43831486  0.43615642  0.37246604  1
  Ni  Ni11  1  0.56170372  0.43607224  0.37254078  1
  Ni  Ni12  1  0.43828361  0.37155804  0.56541394  1
  Ni  Ni13  1  0.43830169  0.37164080  0.43460394  1
  Ni  Ni14  1  0.43829866  0.62842523  0.56537842  1
  Ni  Ni15  1  0.43819931  0.62838208  0.43478420  1
  Ni  Ni16  1  0.56166088  0.37158499  0.56542075  1
  Ni  Ni17  1  0.56158015  0.37152751  0.43460222  1
  Ni  Ni18  1  0.56166764  0.62838923  0.56540533  1
  Ni  Ni19  1  0.56176632  0.62828528  0.43448501  1
  Ni  Ni20  1  0.31286041  0.50000617  0.43493867  1
  Ni  Ni21  1  0.31288588  0.49999529  0.56506519  1
  Ni  Ni22  1  0.68708436  0.50000980  0.56507936  1
  Ni  Ni23  1  0.68701926  0.50000451  0.43498132  1
  Ni  Ni24  1  0.43864784  0.50004718  0.30970809  1
  Ni  Ni25  1  0.43861544  0.49998769  0.69036407  1
  Ni  Ni26  1  0.56138645  0.49998472  0.69042555  1
  Ni  Ni27  1  0.56167822  0.50032597  0.30961964  1
  Ni  Ni28  1  0.31605207  0.56243264  0.62550821  1
  Ni  Ni29  1  0.31597484  0.43764669  0.62552597  1
  Ni  Ni30  1  0.31597190  0.56239549  0.37445424  1
  Ni  Ni31  1  0.68399732  0.56241221  0.62553756  1
  Ni  Ni32  1  0.31599615  0.43762957  0.37446791  1
  Ni  Ni33  1  0.68403293  0.43759325  0.62553215  1
  Ni  Ni34  1  0.68377807  0.56234228  0.37429627  1
  Ni  Ni35  1  0.68390489  0.43756673  0.37460719  1
  Ni  Ni36  1  0.31493955  0.37168360  0.43666918  1
  Ni  Ni37  1  0.31492181  0.37168098  0.56332266  1
  Ni  Ni38  1  0.31495810  0.62835464  0.56336472  1
  Ni  Ni39  1  0.31492557  0.62828932  0.43667432  1
  Ni  Ni40  1  0.68509990  0.37165165  0.56336825  1
  Ni  Ni41  1  0.68504804  0.62831922  0.56330573  1
  Ni  Ni42  1  0.68511450  0.37154456  0.43669826  1
  Ni  Ni43  1  0.68502444  0.62824384  0.43664573  1
  Ni  Ni44  1  0.43932971  0.37185116  0.31034932  1
  Ni  Ni45  1  0.43932525  0.37182497  0.68964995  1
  Ni  Ni46  1  0.43936261  0.62818575  0.68967457  1
  Ni  Ni47  1  0.43924952  0.62811947  0.31037879  1
  Ni  Ni48  1  0.56065094  0.37175947  0.31035845  1
  Ni  Ni49  1  0.56067367  0.37184133  0.68967073  1
  Ni  Ni50  1  0.56064018  0.62816290  0.68965639  1
  Ni  Ni51  1  0.56089113  0.62819837  0.30985373  1
  Ni  Ni52  1  0.43970808  0.69094898  0.62697352  1
  Ni  Ni53  1  0.56027220  0.69090832  0.62699538  1
  Ni  Ni54  1  0.43966827  0.69097665  0.37319173  1
  Ni  Ni55  1  0.56038862  0.69049366  0.37276000  1
  Ni  Ni56  1  0.43970577  0.30906506  0.62698284  1
  Ni  Ni57  1  0.56028370  0.30907749  0.62698048  1
  Ni  Ni58  1  0.43970426  0.30907611  0.37300761  1
  Ni  Ni59  1  0.56025930  0.30903812  0.37302315  1
  Ni  Ni60  1  0.31224690  0.50000228  0.30777071  1
  Ni  Ni61  1  0.31218603  0.49999059  0.69228067  1
  Ni  Ni62  1  0.68778143  0.50000059  0.69224808  1
  Ni  Ni63  1  0.68727695  0.49988542  0.30839479  1
  Ni  Ni64  1  0.43428593  0.24092210  0.43278820  1
  Ni  Ni65  1  0.43428242  0.24089122  0.56725075  1
  Ni  Ni66  1  0.43432701  0.75903786  0.56718497  1
  Ni  Ni67  1  0.43431336  0.75900978  0.43281455  1
  Ni  Ni68  1  0.56568597  0.24102734  0.56721259  1
  Ni  Ni69  1  0.56569161  0.24095209  0.43277152  1
  Ni  Ni70  1  0.56569636  0.75905558  0.56720935  1
  Ni  Ni71  1  0.56576587  0.75899754  0.43271092  1
  Ni  Ni72  1  0.31578961  0.62843003  0.31108015  1
  Ni  Ni73  1  0.31577522  0.37151730  0.31106960  1
  Ni  Ni74  1  0.31576790  0.62845705  0.68892574  1
  Ni  Ni75  1  0.31573155  0.37151907  0.68894687  1
  Ni  Ni76  1  0.68426411  0.37152372  0.68894483  1
  Ni  Ni77  1  0.68422224  0.37154307  0.31108585  1
  Ni  Ni78  1  0.68424725  0.62848742  0.68892821  1
  Ni  Ni79  1  0.68478537  0.62859151  0.31057900  1
  Ni  Ni80  1  0.31609731  0.69129715  0.62834431  1
  Ni  Ni81  1  0.31603776  0.69127512  0.37162292  1
  Ni  Ni82  1  0.68392184  0.69132861  0.62832583  1
  Ni  Ni83  1  0.31605282  0.30866175  0.62836365  1
  Ni  Ni84  1  0.68399213  0.69116436  0.37148064  1
  Ni  Ni85  1  0.31606465  0.30869628  0.37163168  1
  Ni  Ni86  1  0.68390970  0.30875011  0.62835945  1
  Ni  Ni87  1  0.68398222  0.30864449  0.37162755  1
  Ni  Ni88  1  0.19922905  0.50001286  0.56084099  1
  Ni  Ni89  1  0.19923305  0.50000314  0.43913266  1
  Ni  Ni90  1  0.80077275  0.50006975  0.56083483  1
  Ni  Ni91  1  0.80076387  0.50000947  0.43921554  1
  Ni  Ni92  1  0.31814504  0.25076148  0.43402995  1
  Ni  Ni93  1  0.31814925  0.25074771  0.56595838  1
  Ni  Ni94  1  0.31813243  0.74927881  0.56597401  1
  Ni  Ni95  1  0.31810946  0.74926972  0.43406359  1
  Ni  Ni96  1  0.68188121  0.25070923  0.43403993  1
  Ni  Ni97  1  0.68186517  0.25075598  0.56598116  1
  Ni  Ni98  1  0.68183861  0.74924277  0.56592684  1
  Ni  Ni99  1  0.68174619  0.74917191  0.43403213  1
  Ni  Ni100  1  0.43693243  0.25084660  0.68524737  1
  Ni  Ni101  1  0.43692029  0.25083756  0.31473679  1
  Ni  Ni102  1  0.43694975  0.74918202  0.68523014  1
  Ni  Ni103  1  0.43693503  0.74917090  0.31486575  1
  Ni  Ni104  1  0.56305168  0.25086575  0.31474247  1
  Ni  Ni105  1  0.56305250  0.25082464  0.68524509  1
  Ni  Ni106  1  0.56305872  0.74916259  0.68527199  1
  Ni  Ni107  1  0.56292716  0.74907955  0.31489133  1
  Ni  Ni108  1  0.44139276  0.49997591  0.19088798  1
  Ni  Ni109  1  0.44130333  0.49997985  0.80903285  1
  Ni  Ni110  1  0.55855630  0.50014962  0.19121208  1
  Ni  Ni111  1  0.55864398  0.49999643  0.80901454  1
  H  H112  1  0.65474267  0.66145786  0.21241686  1
  Pt  Pt113  1  0.49995765  0.50002955  0.50002536  1
  Pt  Pt114  1  0.43779120  0.56389679  0.50004028  1
  Pt  Pt115  1  0.56213559  0.56394266  0.50003815  1
  Pt  Pt116  1  0.43780824  0.43609703  0.49996225  1
  Pt  Pt117  1  0.56207184  0.43606366  0.50010302  1
  Pt  Pt118  1  0.49996524  0.56436603  0.56624596  1
  Pt  Pt119  1  0.49995626  0.43559940  0.56623929  1
  Pt  Pt120  1  0.50008839  0.56432970  0.43378752  1
  Pt  Pt121  1  0.50001755  0.43568674  0.43377104  1
  Pt  Pt122  1  0.62555040  0.49995494  0.49998278  1
  Pt  Pt123  1  0.37442675  0.49999666  0.50002266  1
  Pt  Pt124  1  0.50001923  0.49996590  0.62766564  1
  Pt  Pt125  1  0.50013257  0.50006628  0.37228968  1
  Pt  Pt126  1  0.49994705  0.37174653  0.50002523  1
  Pt  Pt127  1  0.49997365  0.62822815  0.49997083  1
  Pt  Pt128  1  0.62421373  0.56429863  0.56523612  1
  Pt  Pt129  1  0.37575374  0.56429841  0.56529363  1
  Pt  Pt130  1  0.37575832  0.43566189  0.56524490  1
  Pt  Pt131  1  0.62421910  0.43568832  0.56525810  1
  Pt  Pt132  1  0.62416256  0.56438879  0.43467752  1
  Pt  Pt133  1  0.37569095  0.56426032  0.43477645  1
  Pt  Pt134  1  0.37575608  0.43572972  0.43475363  1
  Pt  Pt135  1  0.62421576  0.43530400  0.43503896  1
  Pt  Pt136  1  0.37692797  0.49999076  0.62680735  1
  Pt  Pt137  1  0.62310786  0.50000153  0.62677759  1
  Pt  Pt138  1  0.62301640  0.49976515  0.37364217  1
  Pt  Pt139  1  0.37690264  0.50005004  0.37321143  1
  Pt  Pt140  1  0.37567209  0.37092129  0.49998799  1
  Pt  Pt141  1  0.62436574  0.37086448  0.49997050  1
  Pt  Pt142  1  0.37566082  0.62905328  0.50000835  1
  Pt  Pt143  1  0.62429492  0.62903321  0.49999898  1
  Pt  Pt144  1  0.49999163  0.37151880  0.62787629  1
  Pt  Pt145  1  0.49999928  0.62846823  0.62782685  1
  Pt  Pt146  1  0.49995875  0.37155574  0.37219043  1
  Pt  Pt147  1  0.49970886  0.62830826  0.37234922  1
  Pt  Pt148  1  0.31240420  0.56590860  0.50010002  1
  Pt  Pt149  1  0.31244045  0.43413037  0.50001771  1
  Pt  Pt150  1  0.68750467  0.56588977  0.49993981  1
  Pt  Pt151  1  0.68760926  0.43399975  0.50014222  1
  Pt  Pt152  1  0.50000904  0.56462882  0.68982290  1
  Pt  Pt153  1  0.50001562  0.43537381  0.68983969  1
  Pt  Pt154  1  0.50011755  0.56474016  0.31012585  1
  Pt  Pt155  1  0.50013560  0.43535908  0.31025574  1
  Pt  Pt156  1  0.43793183  0.69316636  0.49998306  1
  Pt  Pt157  1  0.56206661  0.69312885  0.49998729  1
  Pt  Pt158  1  0.43793465  0.30681205  0.50000789  1
  Pt  Pt159  1  0.56203564  0.30682376  0.50001740  1
  Pt  Pt160  1  0.50000148  0.69318694  0.56574371  1
  Pt  Pt161  1  0.50015184  0.69310573  0.43420679  1
  Pt  Pt162  1  0.49999563  0.30679851  0.56578079  1
  Pt  Pt163  1  0.49997648  0.30679020  0.43426690  1
  Pt  Pt164  1  0.37760000  0.37211378  0.62738773  1
  Pt  Pt165  1  0.62236934  0.37215291  0.62739931  1
  Pt  Pt166  1  0.37767862  0.62789960  0.62744176  1
  Pt  Pt167  1  0.62236115  0.62787201  0.62740033  1
  Pt  Pt168  1  0.62231984  0.37206227  0.37264976  1
  Pt  Pt169  1  0.37763984  0.37216217  0.37262741  1
  Pt  Pt170  1  0.37766585  0.62783072  0.37267688  1
  Pt  Pt171  1  0.62257720  0.62794113  0.37210998  1
  Pt  Pt172  1  0.62175426  0.56315000  0.68844104  1
  Pt  Pt173  1  0.37824265  0.56316194  0.68846564  1
  Pt  Pt174  1  0.37817917  0.43680903  0.68843844  1
  Pt  Pt175  1  0.62177461  0.43684763  0.68845795  1
  Pt  Pt176  1  0.37824293  0.56316869  0.31153527  1
  Pt  Pt177  1  0.62216964  0.56359640  0.31101116  1
  Pt  Pt178  1  0.37823663  0.43684453  0.31155801  1
  Pt  Pt179  1  0.62167527  0.43685191  0.31164832  1
  Pt  Pt180  1  0.37719297  0.69092475  0.56457892  1
  Pt  Pt181  1  0.62274473  0.69088372  0.56459042  1
  Pt  Pt182  1  0.37711044  0.69090967  0.43548822  1
  Pt  Pt183  1  0.62272249  0.69073765  0.43530676  1
  Pt  Pt184  1  0.62275711  0.30914095  0.56456955  1
  Pt  Pt185  1  0.37720069  0.30908357  0.56457849  1
  Pt  Pt186  1  0.62278040  0.30904563  0.43542458  1
  Pt  Pt187  1  0.37721487  0.30909980  0.43541285  1
  Pt  Pt188  1  0.25605039  0.50001041  0.49997487  1
  Pt  Pt189  1  0.74384111  0.49999727  0.50002136  1
  Pt  Pt190  1  0.49994208  0.50000011  0.74992335  1
  Pt  Pt191  1  0.49981439  0.49978635  0.25009859  1
  Pt  Pt192  1  0.49999987  0.24602711  0.50002547  1
  Pt  Pt193  1  0.50001318  0.75390165  0.49997827  1
  Pt  Pt194  1  0.24965780  0.56803370  0.56823917  1
  Pt  Pt195  1  0.75034145  0.56802948  0.56821614  1
  Pt  Pt196  1  0.24959144  0.43196898  0.56823173  1
  Pt  Pt197  1  0.75052267  0.43195286  0.56827875  1
  Pt  Pt198  1  0.24962095  0.56803285  0.43179089  1
  Pt  Pt199  1  0.75050256  0.56807283  0.43173886  1
  Pt  Pt200  1  0.75037456  0.43196933  0.43186726  1
  Pt  Pt201  1  0.24960041  0.43195924  0.43179834  1
  Pt  Pt202  1  0.30714545  0.69869868  0.50002264  1
  Pt  Pt203  1  0.69269304  0.69856409  0.49998788  1
  Pt  Pt204  1  0.30719043  0.30131172  0.49998994  1
  Pt  Pt205  1  0.69294449  0.30119356  0.50001834  1
  Pt  Pt206  1  0.49999326  0.69472817  0.69262720  1
  Pt  Pt207  1  0.49976028  0.69444408  0.30768201  1
  Pt  Pt208  1  0.50000839  0.30525787  0.69265704  1
  Pt  Pt209  1  0.49996286  0.30527725  0.30736986  1
  Pt  Pt210  1  0.43350604  0.56835548  0.75987461  1
  Pt  Pt211  1  0.43356818  0.56826606  0.24010277  1
  Pt  Pt212  1  0.56643154  0.56833460  0.75980497  1
  Pt  Pt213  1  0.56621668  0.56845967  0.24154966  1
  Pt  Pt214  1  0.43354997  0.43162602  0.75977750  1
  Pt  Pt215  1  0.43372523  0.43180437  0.24048074  1
  Pt  Pt216  1  0.56647006  0.43164032  0.75985492  1
  Pt  Pt217  1  0.56642022  0.43157071  0.24009469  1
  Pt  Pt218  1  0.25207296  0.50000857  0.62750625  1
  Pt  Pt219  1  0.74791225  0.49999064  0.62751415  1
  Pt  Pt220  1  0.25207702  0.49998095  0.37247910  1
  Pt  Pt221  1  0.74787848  0.49995926  0.37267152  1
  Pt  Pt222  1  0.24774391  0.63094848  0.50001832  1
  Pt  Pt223  1  0.24780718  0.36904960  0.49999329  1
  Pt  Pt224  1  0.75229089  0.36901429  0.50003615  1
  Pt  Pt225  1  0.75221838  0.63092954  0.50000113  1
  Pt  Pt226  1  0.62542956  0.50000001  0.75632896  1
  Pt  Pt227  1  0.37457912  0.49998054  0.75629301  1
  Pt  Pt228  1  0.37457258  0.50001050  0.24368144  1
  Pt  Pt229  1  0.62522735  0.49978137  0.24354948  1
  Pt  Pt230  1  0.37273559  0.24078725  0.49998810  1
  Pt  Pt231  1  0.62728132  0.24079875  0.50001695  1
  Pt  Pt232  1  0.37270082  0.75923620  0.50000917  1
  Pt  Pt233  1  0.62721654  0.75917094  0.49998494  1
  Pt  Pt234  1  0.50002280  0.37029149  0.75676852  1
  Pt  Pt235  1  0.49998138  0.62969312  0.75679012  1
  Pt  Pt236  1  0.50001341  0.37023879  0.24325306  1
  Pt  Pt237  1  0.49972988  0.62972043  0.24322036  1
  Pt  Pt238  1  0.50000661  0.24245390  0.62932707  1
  Pt  Pt239  1  0.50003052  0.75756564  0.62933260  1
  Pt  Pt240  1  0.49997423  0.24246755  0.37069527  1
  Pt  Pt241  1  0.49999487  0.75753319  0.37076888  1
  Pt  Pt242  1  0.62664150  0.69314544  0.69034221  1
  Pt  Pt243  1  0.37334637  0.69318183  0.69035826  1
  Pt  Pt244  1  0.62683579  0.69332912  0.30925389  1
  Pt  Pt245  1  0.37336336  0.69305905  0.30972428  1
  Pt  Pt246  1  0.37335483  0.30687631  0.69034999  1
  Pt  Pt247  1  0.62661940  0.30687847  0.69031611  1
  Pt  Pt248  1  0.62669916  0.30686521  0.30966346  1
  Pt  Pt249  1  0.37335671  0.30692504  0.30966771  1
  Pt  Pt250  1  0.25866925  0.37028843  0.62919230  1
  Pt  Pt251  1  0.25865040  0.62971268  0.62920561  1
  Pt  Pt252  1  0.74136839  0.37030220  0.62922541  1
  Pt  Pt253  1  0.74132036  0.62969336  0.62920648  1
  Pt  Pt254  1  0.25863261  0.62964812  0.37078077  1
  Pt  Pt255  1  0.25868833  0.37031221  0.37081711  1
  Pt  Pt256  1  0.74129648  0.37035845  0.37083392  1
  Pt  Pt257  1  0.74131571  0.62963999  0.37084099  1
  Pt  Pt258  1  0.37313165  0.36941123  0.75132648  1
  Pt  Pt259  1  0.62682871  0.36942078  0.75129268  1
  Pt  Pt260  1  0.62682581  0.63057424  0.75126535  1
  Pt  Pt261  1  0.37316930  0.63060069  0.75128148  1
  Pt  Pt262  1  0.37321471  0.36948948  0.24868611  1
  Pt  Pt263  1  0.62683762  0.36941656  0.24872589  1
  Pt  Pt264  1  0.62867948  0.63148648  0.24648055  1
  Pt  Pt265  1  0.37320699  0.63057508  0.24868789  1
  Pt  Pt266  1  0.37623884  0.24711686  0.62706269  1
  Pt  Pt267  1  0.62377427  0.24711814  0.62702909  1
  Pt  Pt268  1  0.37625254  0.75291104  0.62703459  1
  Pt  Pt269  1  0.62372681  0.75290241  0.62705186  1
  Pt  Pt270  1  0.37623586  0.24714344  0.37294911  1
  Pt  Pt271  1  0.62373764  0.24708440  0.37294665  1
  Pt  Pt272  1  0.62381652  0.75263126  0.37288195  1
  Pt  Pt273  1  0.37621976  0.75284580  0.37298100  1
  Pt  Pt274  1  0.19240322  0.56034638  0.49999952  1
  Pt  Pt275  1  0.19243031  0.43963134  0.49999185  1
  Pt  Pt276  1  0.80761828  0.56033699  0.50006708  1
  Pt  Pt277  1  0.80760502  0.43967680  0.50004276  1
  Pt  Pt278  1  0.25687605  0.56501156  0.68586703  1
  Pt  Pt279  1  0.74315066  0.56497766  0.68590671  1
  Pt  Pt280  1  0.25682554  0.43498383  0.68590021  1
  Pt  Pt281  1  0.74316703  0.43499895  0.68594468  1
  Pt  Pt282  1  0.25685334  0.56495586  0.31406551  1
  Pt  Pt283  1  0.74321135  0.56485326  0.31424722  1
  Pt  Pt284  1  0.74306637  0.43505939  0.31412596  1
  Pt  Pt285  1  0.25685930  0.43499561  0.31409081  1
  Pt  Pt286  1  0.25532552  0.68986432  0.56894209  1
  Pt  Pt287  1  0.74466113  0.68983433  0.56888547  1
  Pt  Pt288  1  0.25534778  0.68980853  0.43105120  1
  Pt  Pt289  1  0.74460138  0.68983567  0.43111621  1
  Pt  Pt290  1  0.25534129  0.31015635  0.56891695  1
  Pt  Pt291  1  0.74471876  0.31012121  0.56898464  1
  Pt  Pt292  1  0.74469144  0.31011264  0.43103696  1
  Pt  Pt293  1  0.25533697  0.31015518  0.43108078  1
  Pt  Pt294  1  0.31537529  0.56515795  0.75072261  1
  Pt  Pt295  1  0.31539134  0.56517755  0.24926971  1
  Pt  Pt296  1  0.31535307  0.43483333  0.75073934  1
  Pt  Pt297  1  0.31538627  0.43484879  0.24928940  1
  Pt  Pt298  1  0.68463531  0.56517103  0.75073783  1
  Pt  Pt299  1  0.68511514  0.56400159  0.24925695  1
  Pt  Pt300  1  0.68464356  0.43483373  0.75074979  1
  Pt  Pt301  1  0.68455723  0.43490108  0.24932373  1
  Pt  Pt302  1  0.43569282  0.69099941  0.75238620  1
  Pt  Pt303  1  0.43562038  0.69109377  0.24761266  1
  Pt  Pt304  1  0.56430137  0.69096011  0.75239790  1
  Pt  Pt305  1  0.56385105  0.69090106  0.24815086  1
  Pt  Pt306  1  0.43568430  0.30904095  0.75239218  1
  Pt  Pt307  1  0.43567024  0.30903643  0.24760755  1
  Pt  Pt308  1  0.56432670  0.30901416  0.75239893  1
  Pt  Pt309  1  0.56433006  0.30900067  0.24764014  1
  Pt  Pt310  1  0.43796426  0.81507357  0.49999553  1
  Pt  Pt311  1  0.56207054  0.81508860  0.49998398  1
  Pt  Pt312  1  0.43794826  0.18491284  0.50001766  1
  Pt  Pt313  1  0.56208531  0.18492890  0.50000265  1
  Pt  Pt314  1  0.49998888  0.56110578  0.81639543  1
  Pt  Pt315  1  0.49997853  0.43887300  0.81638954  1
  Pt  Pt316  1  0.50031123  0.56126509  0.18375805  1
  Pt  Pt317  1  0.49994592  0.43873201  0.18351811  1
  Pt  Pt318  1  0.50001248  0.81428639  0.56426118  1
  Pt  Pt319  1  0.50001569  0.81431008  0.43574342  1
  Pt  Pt320  1  0.50001649  0.18568172  0.56430136  1
  Pt  Pt321  1  0.49999197  0.18568842  0.43574469  1
