# generated using pymatgen
data_Ni112HPt209
_symmetry_space_group_name_H-M   'P 1'
_cell_length_a   30.00000000
_cell_length_b   30.00000000
_cell_length_c   30.00000000
_cell_angle_alpha   90.00000000
_cell_angle_beta   90.00000000
_cell_angle_gamma   90.00000000
_symmetry_Int_Tables_number   1
_chemical_formula_structural   Ni112HPt209
_chemical_formula_sum   'Ni112 H1 Pt209'
_cell_volume   27000.00000000
_cell_formula_units_Z   1
loop_
 _symmetry_equiv_pos_site_id
 _symmetry_equiv_pos_as_xyz
  1  'x, y, z'
loop_
 _atom_site_type_symbol
 _atom_site_label
 _atom_site_symmetry_multiplicity
 _atom_site_fract_x
 _atom_site_fract_y
 _atom_site_fract_z
 _atom_site_occupancy
  Ni  Ni0  1  0.43785451  0.50002062  0.43517195  1
  Ni  Ni1  1  0.43787600  0.50007796  0.56513511  1
  Ni  Ni2  1  0.56188243  0.50013908  0.56526827  1
  Ni  Ni3  1  0.56186750  0.49993292  0.43515521  1
  Ni  Ni4  1  0.43816657  0.56379265  0.62799892  1
  Ni  Ni5  1  0.56163314  0.56373356  0.62800977  1
  Ni  Ni6  1  0.43834717  0.43623371  0.62794458  1
  Ni  Ni7  1  0.43822275  0.56366657  0.37218471  1
  Ni  Ni8  1  0.56163943  0.43642174  0.62807149  1
  Ni  Ni9  1  0.56158031  0.56334955  0.37219375  1
  Ni  Ni10  1  0.43821840  0.43641234  0.37216567  1
  Ni  Ni11  1  0.56149292  0.43652545  0.37207058  1
  Ni  Ni12  1  0.43820947  0.37204039  0.56572348  1
  Ni  Ni13  1  0.43823917  0.37211655  0.43440393  1
  Ni  Ni14  1  0.43816062  0.62799386  0.56564518  1
  Ni  Ni15  1  0.43818024  0.62792740  0.43442765  1
  Ni  Ni16  1  0.56168952  0.37200502  0.56591034  1
  Ni  Ni17  1  0.56160152  0.37232839  0.43446477  1
  Ni  Ni18  1  0.56170683  0.62787710  0.56563220  1
  Ni  Ni19  1  0.56161743  0.62777679  0.43445968  1
  Ni  Ni20  1  0.31267316  0.49998230  0.43494654  1
  Ni  Ni21  1  0.31269480  0.49998837  0.56518359  1
  Ni  Ni22  1  0.68730054  0.49998651  0.56519427  1
  Ni  Ni23  1  0.68715769  0.49935019  0.43474926  1
  Ni  Ni24  1  0.43858110  0.50008852  0.30888434  1
  Ni  Ni25  1  0.43860158  0.50005530  0.69123652  1
  Ni  Ni26  1  0.56123518  0.50012106  0.69121189  1
  Ni  Ni27  1  0.56107403  0.49988803  0.30893642  1
  Ni  Ni28  1  0.31579567  0.56204580  0.62593605  1
  Ni  Ni29  1  0.31580387  0.43791869  0.62601424  1
  Ni  Ni30  1  0.31576349  0.56203133  0.37419432  1
  Ni  Ni31  1  0.68421155  0.56206405  0.62590768  1
  Ni  Ni32  1  0.31584082  0.43793501  0.37411676  1
  Ni  Ni33  1  0.68416076  0.43805840  0.62607305  1
  Ni  Ni34  1  0.68389808  0.56164951  0.37395515  1
  Ni  Ni35  1  0.68475730  0.43798260  0.37335761  1
  Ni  Ni36  1  0.31481830  0.37216484  0.43647935  1
  Ni  Ni37  1  0.31479974  0.37214541  0.56358376  1
  Ni  Ni38  1  0.31473848  0.62786806  0.56358017  1
  Ni  Ni39  1  0.31472634  0.62779443  0.43647685  1
  Ni  Ni40  1  0.68520610  0.37228223  0.56372642  1
  Ni  Ni41  1  0.68523079  0.62765473  0.56347109  1
  Ni  Ni42  1  0.68503735  0.37335811  0.43586524  1
  Ni  Ni43  1  0.68512867  0.62738570  0.43644183  1
  Ni  Ni44  1  0.43924636  0.37249610  0.30958825  1
  Ni  Ni45  1  0.43929880  0.37237890  0.69039936  1
  Ni  Ni46  1  0.43925898  0.62765677  0.69043800  1
  Ni  Ni47  1  0.43932072  0.62749285  0.30968660  1
  Ni  Ni48  1  0.56051829  0.37285853  0.30938160  1
  Ni  Ni49  1  0.56067148  0.37243250  0.69048233  1
  Ni  Ni50  1  0.56060994  0.62754322  0.69038876  1
  Ni  Ni51  1  0.56062170  0.62744673  0.30969681  1
  Ni  Ni52  1  0.43961421  0.69016686  0.62737740  1
  Ni  Ni53  1  0.56037463  0.69007476  0.62734381  1
  Ni  Ni54  1  0.43965882  0.69010723  0.37265527  1
  Ni  Ni55  1  0.56028559  0.69007346  0.37272654  1
  Ni  Ni56  1  0.43965863  0.30977763  0.62739415  1
  Ni  Ni57  1  0.56038668  0.30986270  0.62737941  1
  Ni  Ni58  1  0.43971915  0.30994552  0.37260731  1
  Ni  Ni59  1  0.56047500  0.31040586  0.37248319  1
  Ni  Ni60  1  0.31229117  0.49997668  0.30755156  1
  Ni  Ni61  1  0.31225380  0.49997370  0.69253627  1
  Ni  Ni62  1  0.68763052  0.50007241  0.69261676  1
  Ni  Ni63  1  0.68726151  0.49940067  0.30767745  1
  Ni  Ni64  1  0.43440972  0.24204668  0.43251730  1
  Ni  Ni65  1  0.43428534  0.24181359  0.56741324  1
  Ni  Ni66  1  0.43421439  0.75812755  0.56742047  1
  Ni  Ni67  1  0.43420859  0.75812093  0.43255641  1
  Ni  Ni68  1  0.56603771  0.24205664  0.56726884  1
  Ni  Ni69  1  0.56605977  0.24242419  0.43237789  1
  Ni  Ni70  1  0.56586040  0.75790339  0.56731732  1
  Ni  Ni71  1  0.56589225  0.75798188  0.43255270  1
  Ni  Ni72  1  0.31542112  0.62787600  0.31056842  1
  Ni  Ni73  1  0.31551449  0.37210401  0.31050119  1
  Ni  Ni74  1  0.31543130  0.62798320  0.68953500  1
  Ni  Ni75  1  0.31544750  0.37210313  0.68952487  1
  Ni  Ni76  1  0.68451231  0.37215567  0.68954718  1
  Ni  Ni77  1  0.68447584  0.37337301  0.30963033  1
  Ni  Ni78  1  0.68456522  0.62785082  0.68951022  1
  Ni  Ni79  1  0.68432009  0.62752704  0.31064921  1
  Ni  Ni80  1  0.31592368  0.69057430  0.62880322  1
  Ni  Ni81  1  0.31592894  0.69052071  0.37125945  1
  Ni  Ni82  1  0.68410074  0.69034741  0.62865336  1
  Ni  Ni83  1  0.31595707  0.30943725  0.62876421  1
  Ni  Ni84  1  0.68398589  0.69019856  0.37132065  1
  Ni  Ni85  1  0.31602260  0.30943592  0.37121938  1
  Ni  Ni86  1  0.68407132  0.30954035  0.62877640  1
  Ni  Ni87  1  0.68401975  0.31090310  0.37046528  1
  Ni  Ni88  1  0.19876450  0.49995983  0.56098811  1
  Ni  Ni89  1  0.19874159  0.49995788  0.43911574  1
  Ni  Ni90  1  0.80136947  0.50004304  0.56107607  1
  Ni  Ni91  1  0.80144128  0.49971843  0.43890505  1
  Ni  Ni92  1  0.31826568  0.25147246  0.43378011  1
  Ni  Ni93  1  0.31818795  0.25140922  0.56617770  1
  Ni  Ni94  1  0.31810667  0.74856370  0.56622436  1
  Ni  Ni95  1  0.31812600  0.74850886  0.43381765  1
  Ni  Ni96  1  0.68214257  0.25261259  0.43324798  1
  Ni  Ni97  1  0.68198187  0.25172094  0.56603843  1
  Ni  Ni98  1  0.68201373  0.74816784  0.56600353  1
  Ni  Ni99  1  0.68199412  0.74824741  0.43379245  1
  Ni  Ni100  1  0.43687477  0.25170456  0.68582524  1
  Ni  Ni101  1  0.43700410  0.25185283  0.31416558  1
  Ni  Ni102  1  0.43689164  0.74824535  0.68575257  1
  Ni  Ni103  1  0.43687029  0.74816676  0.31425344  1
  Ni  Ni104  1  0.56327170  0.25235835  0.31409467  1
  Ni  Ni105  1  0.56320846  0.25175244  0.68574126  1
  Ni  Ni106  1  0.56324430  0.74813836  0.68570943  1
  Ni  Ni107  1  0.56319788  0.74803870  0.31427042  1
  Ni  Ni108  1  0.44099185  0.50022643  0.18968786  1
  Ni  Ni109  1  0.44125489  0.49999684  0.81017425  1
  Ni  Ni110  1  0.55835909  0.50019696  0.18956447  1
  Ni  Ni111  1  0.55865970  0.50006035  0.81019656  1
  H  H112  1  0.78859857  0.42606048  0.28217034  1
  Pt  Pt113  1  0.49971471  0.50011597  0.50019501  1
  Pt  Pt114  1  0.43757816  0.56391108  0.50009972  1
  Pt  Pt115  1  0.56217568  0.56370754  0.50008805  1
  Pt  Pt116  1  0.43764060  0.43617575  0.50012528  1
  Pt  Pt117  1  0.56176033  0.43621095  0.50085024  1
  Pt  Pt118  1  0.49991327  0.56418709  0.56643933  1
  Pt  Pt119  1  0.49985167  0.43593358  0.56659992  1
  Pt  Pt120  1  0.49991918  0.56403811  0.43372997  1
  Pt  Pt121  1  0.49991071  0.43591732  0.43389518  1
  Pt  Pt122  1  0.62546260  0.49992640  0.50021727  1
  Pt  Pt123  1  0.37428848  0.50001018  0.50011505  1
  Pt  Pt124  1  0.49987256  0.50008595  0.62823076  1
  Pt  Pt125  1  0.49978475  0.49994861  0.37204165  1
  Pt  Pt126  1  0.49984758  0.37200233  0.50014132  1
  Pt  Pt127  1  0.49992324  0.62786482  0.50002686  1
  Pt  Pt128  1  0.62431234  0.56408491  0.56547904  1
  Pt  Pt129  1  0.37554806  0.56414835  0.56547463  1
  Pt  Pt130  1  0.37562495  0.43589806  0.56549476  1
  Pt  Pt131  1  0.62430641  0.43597869  0.56561793  1
  Pt  Pt132  1  0.62425844  0.56365403  0.43462308  1
  Pt  Pt133  1  0.37560791  0.56410456  0.43466577  1
  Pt  Pt134  1  0.37561768  0.43587827  0.43469360  1
  Pt  Pt135  1  0.62339368  0.43598941  0.43512235  1
  Pt  Pt136  1  0.37691883  0.50001681  0.62725307  1
  Pt  Pt137  1  0.62301526  0.50008993  0.62731255  1
  Pt  Pt138  1  0.62319517  0.49947279  0.37282033  1
  Pt  Pt139  1  0.37688037  0.50001692  0.37292505  1
  Pt  Pt140  1  0.37550715  0.37125328  0.50004548  1
  Pt  Pt141  1  0.62449291  0.37155267  0.50017729  1
  Pt  Pt142  1  0.37539729  0.62873842  0.50000919  1
  Pt  Pt143  1  0.62444467  0.62843777  0.49996257  1
  Pt  Pt144  1  0.49999399  0.37204126  0.62836984  1
  Pt  Pt145  1  0.49990830  0.62794096  0.62826946  1
  Pt  Pt146  1  0.49992996  0.37228238  0.37174162  1
  Pt  Pt147  1  0.49993093  0.62785006  0.37185542  1
  Pt  Pt148  1  0.31220925  0.56570063  0.50003763  1
  Pt  Pt149  1  0.31226172  0.43426493  0.50007179  1
  Pt  Pt150  1  0.68767812  0.56542800  0.50005029  1
  Pt  Pt151  1  0.68764642  0.43440686  0.50004661  1
  Pt  Pt152  1  0.49989210  0.56443469  0.69070137  1
  Pt  Pt153  1  0.49998981  0.43566728  0.69069513  1
  Pt  Pt154  1  0.49999804  0.56434670  0.30949865  1
  Pt  Pt155  1  0.49976573  0.43575235  0.30935255  1
  Pt  Pt156  1  0.43777867  0.69252555  0.50000765  1
  Pt  Pt157  1  0.56222635  0.69243194  0.50000121  1
  Pt  Pt158  1  0.43784672  0.30740482  0.50000126  1
  Pt  Pt159  1  0.56231827  0.30765350  0.49994149  1
  Pt  Pt160  1  0.50000508  0.69242342  0.56594377  1
  Pt  Pt161  1  0.49999079  0.69240455  0.43410306  1
  Pt  Pt162  1  0.50002811  0.30746936  0.56597286  1
  Pt  Pt163  1  0.50010454  0.30771031  0.43397519  1
  Pt  Pt164  1  0.37757159  0.37271037  0.62796965  1
  Pt  Pt165  1  0.62244650  0.37278132  0.62810357  1
  Pt  Pt166  1  0.37751784  0.62731348  0.62796571  1
  Pt  Pt167  1  0.62240399  0.62722187  0.62798283  1
  Pt  Pt168  1  0.62241982  0.37357936  0.37174467  1
  Pt  Pt169  1  0.37760228  0.37273756  0.37211494  1
  Pt  Pt170  1  0.37753502  0.62727986  0.37211996  1
  Pt  Pt171  1  0.62222265  0.62703528  0.37229886  1
  Pt  Pt172  1  0.62171628  0.56289407  0.68927354  1
  Pt  Pt173  1  0.37821807  0.56292243  0.68923796  1
  Pt  Pt174  1  0.37822725  0.43717069  0.68921527  1
  Pt  Pt175  1  0.62164929  0.43727562  0.68930471  1
  Pt  Pt176  1  0.37817808  0.56281917  0.31086513  1
  Pt  Pt177  1  0.62139499  0.56263376  0.31091946  1
  Pt  Pt178  1  0.37827380  0.43720492  0.31082764  1
  Pt  Pt179  1  0.62188463  0.43743458  0.31021659  1
  Pt  Pt180  1  0.37707453  0.69019394  0.56483787  1
  Pt  Pt181  1  0.62292138  0.68997851  0.56476938  1
  Pt  Pt182  1  0.37710327  0.69019698  0.43519065  1
  Pt  Pt183  1  0.62285724  0.69000573  0.43518690  1
  Pt  Pt184  1  0.62288827  0.30993048  0.56487441  1
  Pt  Pt185  1  0.37714066  0.30974721  0.56484582  1
  Pt  Pt186  1  0.62303596  0.31064816  0.43500761  1
  Pt  Pt187  1  0.37718365  0.30981268  0.43519519  1
  Pt  Pt188  1  0.25561160  0.49996470  0.50006688  1
  Pt  Pt189  1  0.74447790  0.49988637  0.50007479  1
  Pt  Pt190  1  0.49994677  0.50005996  0.75096553  1
  Pt  Pt191  1  0.49978523  0.50013114  0.24899639  1
  Pt  Pt192  1  0.50020139  0.24704299  0.49986610  1
  Pt  Pt193  1  0.50005426  0.75306014  0.49997745  1
  Pt  Pt194  1  0.24928191  0.56783626  0.56823980  1
  Pt  Pt195  1  0.75073973  0.56775310  0.56813773  1
  Pt  Pt196  1  0.24934710  0.43213073  0.56821302  1
  Pt  Pt197  1  0.75067783  0.43232972  0.56836605  1
  Pt  Pt198  1  0.24925792  0.56782056  0.43184430  1
  Pt  Pt199  1  0.75010973  0.56686498  0.43164606  1
  Pt  Pt200  1  0.75082315  0.43221462  0.43209830  1
  Pt  Pt201  1  0.24930869  0.43212249  0.43183560  1
  Pt  Pt202  1  0.30679010  0.69839522  0.50000167  1
  Pt  Pt203  1  0.69314354  0.69792007  0.49984289  1
  Pt  Pt204  1  0.30687810  0.30161162  0.50001241  1
  Pt  Pt205  1  0.69338711  0.30208197  0.49993770  1
  Pt  Pt206  1  0.50001173  0.69395626  0.69325447  1
  Pt  Pt207  1  0.50001845  0.69387197  0.30679955  1
  Pt  Pt208  1  0.50001678  0.30598604  0.69334317  1
  Pt  Pt209  1  0.49997660  0.30636251  0.30662224  1
  Pt  Pt210  1  0.43317916  0.56840722  0.76121673  1
  Pt  Pt211  1  0.43323281  0.56837471  0.23901564  1
  Pt  Pt212  1  0.56659840  0.56839294  0.76110507  1
  Pt  Pt213  1  0.56656907  0.56835802  0.23881111  1
  Pt  Pt214  1  0.43335540  0.43168488  0.76105500  1
  Pt  Pt215  1  0.43313356  0.43185942  0.23875318  1
  Pt  Pt216  1  0.56664807  0.43173965  0.76115653  1
  Pt  Pt217  1  0.56611841  0.43188874  0.23874313  1
  Pt  Pt218  1  0.25171159  0.49998456  0.62766665  1
  Pt  Pt219  1  0.74832626  0.50002505  0.62778935  1
  Pt  Pt220  1  0.25172544  0.49996122  0.37239198  1
  Pt  Pt221  1  0.74791952  0.49898290  0.37181168  1
  Pt  Pt222  1  0.24748435  0.63072592  0.50002128  1
  Pt  Pt223  1  0.24751767  0.36925776  0.50001422  1
  Pt  Pt224  1  0.75252581  0.36966637  0.50031293  1
  Pt  Pt225  1  0.75254434  0.63028962  0.49969068  1
  Pt  Pt226  1  0.62542965  0.50006434  0.75733356  1
  Pt  Pt227  1  0.37451196  0.49996000  0.75730231  1
  Pt  Pt228  1  0.37438926  0.50008746  0.24273547  1
  Pt  Pt229  1  0.62508535  0.49998757  0.24239874  1
  Pt  Pt230  1  0.37271627  0.24167249  0.49995712  1
  Pt  Pt231  1  0.62756377  0.24216509  0.49960107  1
  Pt  Pt232  1  0.37262304  0.75833696  0.50001141  1
  Pt  Pt233  1  0.62746907  0.75809225  0.49994412  1
  Pt  Pt234  1  0.50004422  0.37076103  0.75767979  1
  Pt  Pt235  1  0.49991275  0.62927962  0.75770888  1
  Pt  Pt236  1  0.49964090  0.37099459  0.24216755  1
  Pt  Pt237  1  0.49989086  0.62923928  0.24242911  1
  Pt  Pt238  1  0.50005791  0.24341860  0.62980010  1
  Pt  Pt239  1  0.50007297  0.75651145  0.62976821  1
  Pt  Pt240  1  0.50024239  0.24377826  0.37008075  1
  Pt  Pt241  1  0.50001905  0.75647754  0.37022321  1
  Pt  Pt242  1  0.62698267  0.69237426  0.69086404  1
  Pt  Pt243  1  0.37306507  0.69247451  0.69094306  1
  Pt  Pt244  1  0.62676735  0.69207872  0.30921537  1
  Pt  Pt245  1  0.37306198  0.69240532  0.30913397  1
  Pt  Pt246  1  0.37308160  0.30757404  0.69097112  1
  Pt  Pt247  1  0.62697546  0.30752740  0.69098100  1
  Pt  Pt248  1  0.62671400  0.30842207  0.30855192  1
  Pt  Pt249  1  0.37321407  0.30766384  0.30908030  1
  Pt  Pt250  1  0.25849802  0.37091007  0.62958570  1
  Pt  Pt251  1  0.25845594  0.62909466  0.62960096  1
  Pt  Pt252  1  0.74156624  0.37099591  0.62970383  1
  Pt  Pt253  1  0.74152759  0.62893505  0.62956431  1
  Pt  Pt254  1  0.25845800  0.62906731  0.37047026  1
  Pt  Pt255  1  0.25858281  0.37090961  0.37045768  1
  Pt  Pt256  1  0.74160005  0.37247819  0.36923077  1
  Pt  Pt257  1  0.74145614  0.62860820  0.37050684  1
  Pt  Pt258  1  0.37275450  0.36990361  0.75206915  1
  Pt  Pt259  1  0.62717258  0.36988497  0.75206133  1
  Pt  Pt260  1  0.62726185  0.63011566  0.75202428  1
  Pt  Pt261  1  0.37269011  0.63022695  0.75208936  1
  Pt  Pt262  1  0.37280362  0.36991513  0.24794277  1
  Pt  Pt263  1  0.62704256  0.37054921  0.24729588  1
  Pt  Pt264  1  0.62721685  0.62996216  0.24794533  1
  Pt  Pt265  1  0.37265818  0.63012737  0.24801839  1
  Pt  Pt266  1  0.37623654  0.24802891  0.62748815  1
  Pt  Pt267  1  0.62398081  0.24806011  0.62743228  1
  Pt  Pt268  1  0.37620653  0.75199270  0.62744432  1
  Pt  Pt269  1  0.62390341  0.75180805  0.62730888  1
  Pt  Pt270  1  0.37637346  0.24810388  0.37252156  1
  Pt  Pt271  1  0.62404916  0.24906709  0.37223286  1
  Pt  Pt272  1  0.62384786  0.75172301  0.37256301  1
  Pt  Pt273  1  0.37621499  0.75191597  0.37258768  1
  Pt  Pt274  1  0.19193458  0.56023755  0.50002487  1
  Pt  Pt275  1  0.19191420  0.43971348  0.50003430  1
  Pt  Pt276  1  0.80812221  0.55999203  0.49982988  1
  Pt  Pt277  1  0.80837013  0.43984240  0.50018665  1
  Pt  Pt278  1  0.25661390  0.56454940  0.68648570  1
  Pt  Pt279  1  0.74341565  0.56452036  0.68658000  1
  Pt  Pt280  1  0.25652306  0.43547018  0.68649791  1
  Pt  Pt281  1  0.74335886  0.43552718  0.68666441  1
  Pt  Pt282  1  0.25650906  0.56452190  0.31358994  1
  Pt  Pt283  1  0.74316642  0.56413296  0.31357630  1
  Pt  Pt284  1  0.74553547  0.43582951  0.31047315  1
  Pt  Pt285  1  0.25658911  0.43541918  0.31356175  1
  Pt  Pt286  1  0.25530707  0.68925000  0.56921203  1
  Pt  Pt287  1  0.74475400  0.68883835  0.56893804  1
  Pt  Pt288  1  0.25530869  0.68923522  0.43080588  1
  Pt  Pt289  1  0.74466868  0.68889825  0.43070604  1
  Pt  Pt290  1  0.25538920  0.31073265  0.56918675  1
  Pt  Pt291  1  0.74474527  0.31087630  0.56927259  1
  Pt  Pt292  1  0.74420313  0.31254284  0.43027835  1
  Pt  Pt293  1  0.25543218  0.31073673  0.43081644  1
  Pt  Pt294  1  0.31507732  0.56473082  0.75142267  1
  Pt  Pt295  1  0.31490084  0.56479307  0.24864679  1
  Pt  Pt296  1  0.31496006  0.43524343  0.75144131  1
  Pt  Pt297  1  0.31503865  0.43524553  0.24862276  1
  Pt  Pt298  1  0.68498709  0.56473450  0.75150742  1
  Pt  Pt299  1  0.68475124  0.56440196  0.24874138  1
  Pt  Pt300  1  0.68486151  0.43526802  0.75148556  1
  Pt  Pt301  1  0.68498384  0.43588489  0.24698855  1
  Pt  Pt302  1  0.43552214  0.69037924  0.75296099  1
  Pt  Pt303  1  0.43548614  0.69026422  0.24718645  1
  Pt  Pt304  1  0.56448502  0.69022152  0.75287389  1
  Pt  Pt305  1  0.56442308  0.69015026  0.24703180  1
  Pt  Pt306  1  0.43553686  0.30973819  0.75299235  1
  Pt  Pt307  1  0.43551293  0.30971652  0.24693179  1
  Pt  Pt308  1  0.56449969  0.30962926  0.75297844  1
  Pt  Pt309  1  0.56426943  0.31023720  0.24662787  1
  Pt  Pt310  1  0.43799933  0.81406755  0.49996899  1
  Pt  Pt311  1  0.56217998  0.81398157  0.49998198  1
  Pt  Pt312  1  0.43817958  0.18601981  0.49985100  1
  Pt  Pt313  1  0.56236298  0.18615511  0.49980103  1
  Pt  Pt314  1  0.49994961  0.56094150  0.81745597  1
  Pt  Pt315  1  0.49999236  0.43910271  0.81749585  1
  Pt  Pt316  1  0.49977548  0.56108661  0.18250016  1
  Pt  Pt317  1  0.49958366  0.43938895  0.18220270  1
  Pt  Pt318  1  0.50009849  0.81307261  0.56445491  1
  Pt  Pt319  1  0.50011572  0.81301602  0.43548793  1
  Pt  Pt320  1  0.50028239  0.18702165  0.56434541  1
  Pt  Pt321  1  0.50031818  0.18711998  0.43528424  1
