# generated using pymatgen
data_Ni112HPt209
_symmetry_space_group_name_H-M   'P 1'
_cell_length_a   30.00000000
_cell_length_b   30.00000000
_cell_length_c   30.00000000
_cell_angle_alpha   90.00000000
_cell_angle_beta   90.00000000
_cell_angle_gamma   90.00000000
_symmetry_Int_Tables_number   1
_chemical_formula_structural   Ni112HPt209
_chemical_formula_sum   'Ni112 H1 Pt209'
_cell_volume   27000.00000000
_cell_formula_units_Z   1
loop_
 _symmetry_equiv_pos_site_id
 _symmetry_equiv_pos_as_xyz
  1  'x, y, z'
loop_
 _atom_site_type_symbol
 _atom_site_label
 _atom_site_symmetry_multiplicity
 _atom_site_fract_x
 _atom_site_fract_y
 _atom_site_fract_z
 _atom_site_occupancy
  Ni  Ni0  1  0.43815027  0.49993465  0.43504308  1
  Ni  Ni1  1  0.43812610  0.49994673  0.56476843  1
  Ni  Ni2  1  0.56185407  0.49997247  0.56486508  1
  Ni  Ni3  1  0.56190199  0.49997653  0.43515426  1
  Ni  Ni4  1  0.43810438  0.56435299  0.62768086  1
  Ni  Ni5  1  0.56165689  0.56384380  0.62744584  1
  Ni  Ni6  1  0.43829086  0.43602554  0.62742441  1
  Ni  Ni7  1  0.43831182  0.56387812  0.37244240  1
  Ni  Ni8  1  0.56173232  0.43598860  0.62745607  1
  Ni  Ni9  1  0.56170981  0.56392834  0.37247749  1
  Ni  Ni10  1  0.43835953  0.43599993  0.37248682  1
  Ni  Ni11  1  0.56172236  0.43605194  0.37249116  1
  Ni  Ni12  1  0.43835437  0.37160512  0.56533119  1
  Ni  Ni13  1  0.43842723  0.37157417  0.43461839  1
  Ni  Ni14  1  0.43804052  0.62834861  0.56576454  1
  Ni  Ni15  1  0.43837445  0.62827108  0.43455163  1
  Ni  Ni16  1  0.56165393  0.37159700  0.56538335  1
  Ni  Ni17  1  0.56166658  0.37162458  0.43466224  1
  Ni  Ni18  1  0.56159632  0.62832358  0.56536026  1
  Ni  Ni19  1  0.56165005  0.62829846  0.43456750  1
  Ni  Ni20  1  0.31285501  0.49992448  0.43490188  1
  Ni  Ni21  1  0.31313057  0.50018683  0.56501118  1
  Ni  Ni22  1  0.68705637  0.49998830  0.56499383  1
  Ni  Ni23  1  0.68709324  0.50000094  0.43502810  1
  Ni  Ni24  1  0.43860809  0.49999078  0.30953781  1
  Ni  Ni25  1  0.43866205  0.49982850  0.69038069  1
  Ni  Ni26  1  0.56156888  0.49969351  0.69036691  1
  Ni  Ni27  1  0.56144653  0.50003271  0.30954378  1
  Ni  Ni28  1  0.31653567  0.56294930  0.62558037  1
  Ni  Ni29  1  0.31605346  0.43755648  0.62544277  1
  Ni  Ni30  1  0.31594763  0.56243837  0.37439910  1
  Ni  Ni31  1  0.68398980  0.56249214  0.62552351  1
  Ni  Ni32  1  0.31590846  0.43745772  0.37440485  1
  Ni  Ni33  1  0.68402967  0.43742115  0.62551637  1
  Ni  Ni34  1  0.68400929  0.56244546  0.37446435  1
  Ni  Ni35  1  0.68399864  0.43751247  0.37447062  1
  Ni  Ni36  1  0.31478163  0.37157052  0.43663685  1
  Ni  Ni37  1  0.31484724  0.37160738  0.56329353  1
  Ni  Ni38  1  0.31548855  0.62815302  0.56381552  1
  Ni  Ni39  1  0.31492277  0.62827164  0.43664572  1
  Ni  Ni40  1  0.68518357  0.37165223  0.56333316  1
  Ni  Ni41  1  0.68511241  0.62830767  0.56332379  1
  Ni  Ni42  1  0.68513963  0.37169965  0.43667354  1
  Ni  Ni43  1  0.68513198  0.62830590  0.43663246  1
  Ni  Ni44  1  0.43942322  0.37195408  0.31023612  1
  Ni  Ni45  1  0.43934808  0.37191320  0.68972838  1
  Ni  Ni46  1  0.43916356  0.62832466  0.69005984  1
  Ni  Ni47  1  0.43937764  0.62802434  0.31017173  1
  Ni  Ni48  1  0.56066037  0.37193272  0.31017744  1
  Ni  Ni49  1  0.56065556  0.37190909  0.68975220  1
  Ni  Ni50  1  0.56071492  0.62800509  0.68969659  1
  Ni  Ni51  1  0.56066959  0.62805057  0.31016925  1
  Ni  Ni52  1  0.43940928  0.69086151  0.62744161  1
  Ni  Ni53  1  0.56026987  0.69072102  0.62689748  1
  Ni  Ni54  1  0.43972339  0.69075776  0.37290601  1
  Ni  Ni55  1  0.56033034  0.69076290  0.37292080  1
  Ni  Ni56  1  0.43968067  0.30918332  0.62701662  1
  Ni  Ni57  1  0.56033312  0.30916114  0.62702476  1
  Ni  Ni58  1  0.43973327  0.30921994  0.37296934  1
  Ni  Ni59  1  0.56034795  0.30919286  0.37294012  1
  Ni  Ni60  1  0.31245033  0.50000660  0.30801219  1
  Ni  Ni61  1  0.31273755  0.49994217  0.69172101  1
  Ni  Ni62  1  0.68762450  0.49998743  0.69203452  1
  Ni  Ni63  1  0.68750051  0.50000924  0.30804930  1
  Ni  Ni64  1  0.43437267  0.24119954  0.43283332  1
  Ni  Ni65  1  0.43433928  0.24114530  0.56715735  1
  Ni  Ni66  1  0.43434198  0.75857309  0.56676422  1
  Ni  Ni67  1  0.43441190  0.75884009  0.43275809  1
  Ni  Ni68  1  0.56569107  0.24110767  0.56716097  1
  Ni  Ni69  1  0.56569392  0.24110474  0.43282960  1
  Ni  Ni70  1  0.56552386  0.75857453  0.56719819  1
  Ni  Ni71  1  0.56572802  0.75899491  0.43281764  1
  Ni  Ni72  1  0.31570021  0.62840996  0.31094646  1
  Ni  Ni73  1  0.31563787  0.37163066  0.31101043  1
  Ni  Ni74  1  0.31564044  0.62858419  0.68925551  1
  Ni  Ni75  1  0.31572315  0.37153849  0.68888866  1
  Ni  Ni76  1  0.68435862  0.37149591  0.68896182  1
  Ni  Ni77  1  0.68430061  0.37158143  0.31096030  1
  Ni  Ni78  1  0.68429393  0.62841176  0.68895980  1
  Ni  Ni79  1  0.68430321  0.62842235  0.31097386  1
  Ni  Ni80  1  0.31584119  0.69120182  0.62848485  1
  Ni  Ni81  1  0.31599453  0.69111659  0.37151656  1
  Ni  Ni82  1  0.68405915  0.69115962  0.62839850  1
  Ni  Ni83  1  0.31591657  0.30879971  0.62840847  1
  Ni  Ni84  1  0.68399424  0.69122933  0.37153846  1
  Ni  Ni85  1  0.31588701  0.30887891  0.37159365  1
  Ni  Ni86  1  0.68411734  0.30877542  0.62837535  1
  Ni  Ni87  1  0.68401716  0.30886185  0.37155855  1
  Ni  Ni88  1  0.19918071  0.50010725  0.56085255  1
  Ni  Ni89  1  0.19922849  0.50001277  0.43922460  1
  Ni  Ni90  1  0.80090933  0.49999468  0.56085863  1
  Ni  Ni91  1  0.80086742  0.49999883  0.43917157  1
  Ni  Ni92  1  0.31799176  0.25083216  0.43395973  1
  Ni  Ni93  1  0.31803339  0.25074507  0.56602956  1
  Ni  Ni94  1  0.31821958  0.74901474  0.56585382  1
  Ni  Ni95  1  0.31816867  0.74913737  0.43388098  1
  Ni  Ni96  1  0.68191113  0.25078430  0.43395683  1
  Ni  Ni97  1  0.68196745  0.25071178  0.56598783  1
  Ni  Ni98  1  0.68192599  0.74917828  0.56596528  1
  Ni  Ni99  1  0.68187794  0.74919219  0.43396203  1
  Ni  Ni100  1  0.43691362  0.25102043  0.68530785  1
  Ni  Ni101  1  0.43688855  0.25110924  0.31467969  1
  Ni  Ni102  1  0.43645724  0.74815351  0.68545517  1
  Ni  Ni103  1  0.43697517  0.74895499  0.31463355  1
  Ni  Ni104  1  0.56311062  0.25105182  0.31456755  1
  Ni  Ni105  1  0.56310632  0.25105117  0.68533575  1
  Ni  Ni106  1  0.56292764  0.74882581  0.68511691  1
  Ni  Ni107  1  0.56309832  0.74892903  0.31456995  1
  Ni  Ni108  1  0.44140299  0.50000669  0.19075599  1
  Ni  Ni109  1  0.44143770  0.49980925  0.80921203  1
  Ni  Ni110  1  0.55861156  0.50001223  0.19072852  1
  Ni  Ni111  1  0.55874226  0.49989504  0.80929639  1
  H  H112  1  0.34060516  0.72793467  0.72440838  1
  Pt  Pt113  1  0.50001819  0.49993396  0.50000306  1
  Pt  Pt114  1  0.43782921  0.56381191  0.49990083  1
  Pt  Pt115  1  0.56216522  0.56395443  0.50003731  1
  Pt  Pt116  1  0.43781636  0.43591674  0.49998413  1
  Pt  Pt117  1  0.56223350  0.43599750  0.50001487  1
  Pt  Pt118  1  0.49988183  0.56432629  0.56624266  1
  Pt  Pt119  1  0.50001695  0.43570531  0.56621165  1
  Pt  Pt120  1  0.50003358  0.56424837  0.43377717  1
  Pt  Pt121  1  0.50003435  0.43571923  0.43379634  1
  Pt  Pt122  1  0.62547228  0.49998102  0.50000724  1
  Pt  Pt123  1  0.37450392  0.49973046  0.49962068  1
  Pt  Pt124  1  0.49995094  0.49998942  0.62776758  1
  Pt  Pt125  1  0.50002805  0.49998343  0.37221960  1
  Pt  Pt126  1  0.50002205  0.37172443  0.50001446  1
  Pt  Pt127  1  0.49995020  0.62819921  0.49999062  1
  Pt  Pt128  1  0.62420385  0.56427277  0.56523154  1
  Pt  Pt129  1  0.37611790  0.56423814  0.56517545  1
  Pt  Pt130  1  0.37576051  0.43563755  0.56516326  1
  Pt  Pt131  1  0.62419879  0.43562553  0.56523416  1
  Pt  Pt132  1  0.62416904  0.56432368  0.43472489  1
  Pt  Pt133  1  0.37577477  0.56426008  0.43467995  1
  Pt  Pt134  1  0.37582338  0.43556857  0.43463911  1
  Pt  Pt135  1  0.62421360  0.43568231  0.43475717  1
  Pt  Pt136  1  0.37704538  0.50003711  0.62665457  1
  Pt  Pt137  1  0.62315331  0.49993087  0.62675864  1
  Pt  Pt138  1  0.62311051  0.50001842  0.37322752  1
  Pt  Pt139  1  0.37688224  0.49995990  0.37315601  1
  Pt  Pt140  1  0.37567895  0.37096483  0.49997547  1
  Pt  Pt141  1  0.62432267  0.37101607  0.50001743  1
  Pt  Pt142  1  0.37584833  0.62886739  0.49999132  1
  Pt  Pt143  1  0.62430184  0.62893498  0.49998014  1
  Pt  Pt144  1  0.49999162  0.37160482  0.62777868  1
  Pt  Pt145  1  0.49985153  0.62839798  0.62792102  1
  Pt  Pt146  1  0.50006668  0.37167451  0.37217528  1
  Pt  Pt147  1  0.50001407  0.62828495  0.37212355  1
  Pt  Pt148  1  0.31264465  0.56588902  0.50010196  1
  Pt  Pt149  1  0.31242056  0.43398741  0.49989128  1
  Pt  Pt150  1  0.68750721  0.56587977  0.49993961  1
  Pt  Pt151  1  0.68754361  0.43412745  0.50000273  1
  Pt  Pt152  1  0.50024565  0.56437984  0.68992548  1
  Pt  Pt153  1  0.50003330  0.43531400  0.68986856  1
  Pt  Pt154  1  0.50004502  0.56458313  0.30999006  1
  Pt  Pt155  1  0.50007253  0.43540925  0.31000428  1
  Pt  Pt156  1  0.43795356  0.69301474  0.49985540  1
  Pt  Pt157  1  0.56214642  0.69301168  0.49983643  1
  Pt  Pt158  1  0.43789558  0.30686130  0.49998629  1
  Pt  Pt159  1  0.56211988  0.30685800  0.49999841  1
  Pt  Pt160  1  0.50005020  0.69292418  0.56559010  1
  Pt  Pt161  1  0.50003996  0.69298633  0.43411016  1
  Pt  Pt162  1  0.49999952  0.30692918  0.56573112  1
  Pt  Pt163  1  0.50005442  0.30693382  0.43424230  1
  Pt  Pt164  1  0.37767560  0.37212488  0.62734008  1
  Pt  Pt165  1  0.62235672  0.37208136  0.62740192  1
  Pt  Pt166  1  0.37796864  0.62909364  0.62887710  1
  Pt  Pt167  1  0.62235361  0.62776138  0.62737969  1
  Pt  Pt168  1  0.62231394  0.37219095  0.37255158  1
  Pt  Pt169  1  0.37766251  0.37217916  0.37262619  1
  Pt  Pt170  1  0.37768527  0.62775494  0.37250068  1
  Pt  Pt171  1  0.62236449  0.62780386  0.37250729  1
  Pt  Pt172  1  0.62160921  0.56302953  0.68846996  1
  Pt  Pt173  1  0.37838666  0.56304511  0.68845443  1
  Pt  Pt174  1  0.37833515  0.43685770  0.68840015  1
  Pt  Pt175  1  0.62172952  0.43680381  0.68847401  1
  Pt  Pt176  1  0.37831728  0.56309481  0.31144807  1
  Pt  Pt177  1  0.62166951  0.56311449  0.31146787  1
  Pt  Pt178  1  0.37835131  0.43687077  0.31147922  1
  Pt  Pt179  1  0.62165898  0.43692573  0.31148757  1
  Pt  Pt180  1  0.37728816  0.69064931  0.56458130  1
  Pt  Pt181  1  0.62282862  0.69079418  0.56453087  1
  Pt  Pt182  1  0.37723147  0.69073969  0.43531675  1
  Pt  Pt183  1  0.62285087  0.69081106  0.43537374  1
  Pt  Pt184  1  0.62287972  0.30910214  0.56459991  1
  Pt  Pt185  1  0.37714782  0.30910633  0.56457907  1
  Pt  Pt186  1  0.62283688  0.30915926  0.43539628  1
  Pt  Pt187  1  0.37715779  0.30912271  0.43540897  1
  Pt  Pt188  1  0.25610804  0.50005126  0.50008850  1
  Pt  Pt189  1  0.74401711  0.50002229  0.50002430  1
  Pt  Pt190  1  0.50020449  0.49977998  0.75004983  1
  Pt  Pt191  1  0.50004426  0.49999849  0.24985653  1
  Pt  Pt192  1  0.50001985  0.24613343  0.49999462  1
  Pt  Pt193  1  0.50006089  0.75380652  0.49985747  1
  Pt  Pt194  1  0.24979689  0.56803478  0.56809519  1
  Pt  Pt195  1  0.75040210  0.56798495  0.56812925  1
  Pt  Pt196  1  0.24969544  0.43208807  0.56808976  1
  Pt  Pt197  1  0.75046045  0.43200023  0.56812160  1
  Pt  Pt198  1  0.24966927  0.56796718  0.43192628  1
  Pt  Pt199  1  0.75049475  0.56803266  0.43184225  1
  Pt  Pt200  1  0.75044629  0.43198430  0.43184797  1
  Pt  Pt201  1  0.24950983  0.43192549  0.43181847  1
  Pt  Pt202  1  0.30732151  0.69845005  0.49987051  1
  Pt  Pt203  1  0.69293133  0.69868909  0.49999485  1
  Pt  Pt204  1  0.30702985  0.30130123  0.50001439  1
  Pt  Pt205  1  0.69293143  0.30131533  0.50000931  1
  Pt  Pt206  1  0.50002737  0.69437484  0.69267400  1
  Pt  Pt207  1  0.50002246  0.69453616  0.30727215  1
  Pt  Pt208  1  0.49999138  0.30542058  0.69268751  1
  Pt  Pt209  1  0.50002004  0.30545897  0.30728889  1
  Pt  Pt210  1  0.43378002  0.56791505  0.75969506  1
  Pt  Pt211  1  0.43348731  0.56841599  0.23988838  1
  Pt  Pt212  1  0.56667808  0.56836585  0.76023935  1
  Pt  Pt213  1  0.56653977  0.56843744  0.23984624  1
  Pt  Pt214  1  0.43353388  0.43153386  0.75997862  1
  Pt  Pt215  1  0.43355017  0.43162858  0.23996211  1
  Pt  Pt216  1  0.56658931  0.43145539  0.76015483  1
  Pt  Pt217  1  0.56653402  0.43158481  0.23986563  1
  Pt  Pt218  1  0.25220711  0.50011250  0.62741753  1
  Pt  Pt219  1  0.74785937  0.49999653  0.62744471  1
  Pt  Pt220  1  0.25200668  0.50002369  0.37248056  1
  Pt  Pt221  1  0.74785229  0.50001511  0.37254835  1
  Pt  Pt222  1  0.24765762  0.63095021  0.50000177  1
  Pt  Pt223  1  0.24748261  0.36896563  0.50003392  1
  Pt  Pt224  1  0.75240417  0.36900776  0.50000606  1
  Pt  Pt225  1  0.75237545  0.63097962  0.49996923  1
  Pt  Pt226  1  0.62547170  0.49985983  0.75641358  1
  Pt  Pt227  1  0.37455210  0.49977903  0.75646429  1
  Pt  Pt228  1  0.37460257  0.50000188  0.24353827  1
  Pt  Pt229  1  0.62539396  0.50001797  0.24354845  1
  Pt  Pt230  1  0.37254813  0.24086988  0.50000470  1
  Pt  Pt231  1  0.62740492  0.24089762  0.50000123  1
  Pt  Pt232  1  0.37272045  0.75902772  0.49984542  1
  Pt  Pt233  1  0.62737381  0.75908590  0.49998448  1
  Pt  Pt234  1  0.50003837  0.37033439  0.75685945  1
  Pt  Pt235  1  0.50023139  0.62938339  0.75688347  1
  Pt  Pt236  1  0.50002053  0.37040766  0.24303632  1
  Pt  Pt237  1  0.50000718  0.62955703  0.24306132  1
  Pt  Pt238  1  0.50002939  0.24264387  0.62937720  1
  Pt  Pt239  1  0.49945059  0.75712676  0.62942152  1
  Pt  Pt240  1  0.50003491  0.24264109  0.37057210  1
  Pt  Pt241  1  0.50008787  0.75736469  0.37055465  1
  Pt  Pt242  1  0.62669804  0.69297806  0.69034247  1
  Pt  Pt243  1  0.36908845  0.69663959  0.69410387  1
  Pt  Pt244  1  0.62672282  0.69300883  0.30952953  1
  Pt  Pt245  1  0.37332499  0.69299437  0.30956804  1
  Pt  Pt246  1  0.37327292  0.30697801  0.69037599  1
  Pt  Pt247  1  0.62680008  0.30694282  0.69040831  1
  Pt  Pt248  1  0.62672492  0.30699545  0.30955594  1
  Pt  Pt249  1  0.37328056  0.30712532  0.30968259  1
  Pt  Pt250  1  0.25858333  0.37048224  0.62919175  1
  Pt  Pt251  1  0.25876441  0.62938472  0.62937494  1
  Pt  Pt252  1  0.74147301  0.37039957  0.62922094  1
  Pt  Pt253  1  0.74145058  0.62953656  0.62925877  1
  Pt  Pt254  1  0.25860213  0.62948553  0.37069153  1
  Pt  Pt255  1  0.25843549  0.37041508  0.37065422  1
  Pt  Pt256  1  0.74142227  0.37046067  0.37068676  1
  Pt  Pt257  1  0.74134355  0.62954837  0.37069485  1
  Pt  Pt258  1  0.37306798  0.36952049  0.75131049  1
  Pt  Pt259  1  0.62708104  0.36950087  0.75135210  1
  Pt  Pt260  1  0.62697884  0.63045586  0.75134328  1
  Pt  Pt261  1  0.37317212  0.62986855  0.75131774  1
  Pt  Pt262  1  0.37303688  0.36961463  0.24865014  1
  Pt  Pt263  1  0.62695128  0.36953310  0.24858588  1
  Pt  Pt264  1  0.62696913  0.63046073  0.24860122  1
  Pt  Pt265  1  0.37306528  0.63049174  0.24857732  1
  Pt  Pt266  1  0.37627190  0.24725035  0.62708931  1
  Pt  Pt267  1  0.62375562  0.24723670  0.62710001  1
  Pt  Pt268  1  0.37648636  0.75255945  0.62676623  1
  Pt  Pt269  1  0.62373559  0.75267628  0.62704634  1
  Pt  Pt270  1  0.37626482  0.24730203  0.37289348  1
  Pt  Pt271  1  0.62372189  0.24726885  0.37284683  1
  Pt  Pt272  1  0.62368414  0.75270192  0.37285737  1
  Pt  Pt273  1  0.37633906  0.75268647  0.37284622  1
  Pt  Pt274  1  0.19231043  0.56030202  0.50002332  1
  Pt  Pt275  1  0.19232677  0.43981949  0.50004044  1
  Pt  Pt276  1  0.80774226  0.56026511  0.50001466  1
  Pt  Pt277  1  0.80772814  0.43972978  0.49999453  1
  Pt  Pt278  1  0.25705213  0.56461393  0.68603952  1
  Pt  Pt279  1  0.74319157  0.56481439  0.68597271  1
  Pt  Pt280  1  0.25693972  0.43524261  0.68588687  1
  Pt  Pt281  1  0.74321335  0.43513092  0.68591543  1
  Pt  Pt282  1  0.25686027  0.56479245  0.31392086  1
  Pt  Pt283  1  0.74313833  0.56480969  0.31398537  1
  Pt  Pt284  1  0.74312864  0.43522311  0.31398448  1
  Pt  Pt285  1  0.25676693  0.43522586  0.31397775  1
  Pt  Pt286  1  0.25555155  0.68943239  0.56877388  1
  Pt  Pt287  1  0.74470772  0.68977642  0.56894547  1
  Pt  Pt288  1  0.25533233  0.68975069  0.43100545  1
  Pt  Pt289  1  0.74464744  0.68977871  0.43100542  1
  Pt  Pt290  1  0.25526572  0.31016505  0.56896123  1
  Pt  Pt291  1  0.74476245  0.31010700  0.56893205  1
  Pt  Pt292  1  0.74467266  0.31020496  0.43100895  1
  Pt  Pt293  1  0.25521766  0.31020697  0.43103784  1
  Pt  Pt294  1  0.31538767  0.56471166  0.75083381  1
  Pt  Pt295  1  0.31533595  0.56508156  0.24916395  1
  Pt  Pt296  1  0.31529824  0.43483133  0.75071144  1
  Pt  Pt297  1  0.31529083  0.43499497  0.24926852  1
  Pt  Pt298  1  0.68464487  0.56502177  0.75068751  1
  Pt  Pt299  1  0.68467248  0.56503995  0.24923511  1
  Pt  Pt300  1  0.68478732  0.43491187  0.75068918  1
  Pt  Pt301  1  0.68464293  0.43496279  0.24923268  1
  Pt  Pt302  1  0.43589332  0.68991509  0.75236224  1
  Pt  Pt303  1  0.43575466  0.69080117  0.24749346  1
  Pt  Pt304  1  0.56431692  0.69081317  0.75243930  1
  Pt  Pt305  1  0.56427051  0.69079163  0.24747503  1
  Pt  Pt306  1  0.43570178  0.30917592  0.75246275  1
  Pt  Pt307  1  0.43567715  0.30928189  0.24756177  1
  Pt  Pt308  1  0.56436033  0.30918662  0.75242642  1
  Pt  Pt309  1  0.56429852  0.30917373  0.24748742  1
  Pt  Pt310  1  0.43800677  0.81499984  0.49985548  1
  Pt  Pt311  1  0.56204993  0.81495800  0.50014529  1
  Pt  Pt312  1  0.43791056  0.18503702  0.49997220  1
  Pt  Pt313  1  0.56211376  0.18497941  0.49997817  1
  Pt  Pt314  1  0.50004419  0.56082425  0.81661622  1
  Pt  Pt315  1  0.50004022  0.43887080  0.81659098  1
  Pt  Pt316  1  0.50000635  0.56100263  0.18334762  1
  Pt  Pt317  1  0.50000638  0.43898789  0.18331760  1
  Pt  Pt318  1  0.49991678  0.81398320  0.56438909  1
  Pt  Pt319  1  0.50005941  0.81418355  0.43559857  1
  Pt  Pt320  1  0.50000511  0.18582958  0.56433261  1
  Pt  Pt321  1  0.50000780  0.18583299  0.43563952  1
