# generated using pymatgen
data_Ni112HPt209
_symmetry_space_group_name_H-M   'P 1'
_cell_length_a   30.00000000
_cell_length_b   30.00000000
_cell_length_c   30.00000000
_cell_angle_alpha   90.00000000
_cell_angle_beta   90.00000000
_cell_angle_gamma   90.00000000
_symmetry_Int_Tables_number   1
_chemical_formula_structural   Ni112HPt209
_chemical_formula_sum   'Ni112 H1 Pt209'
_cell_volume   27000.00000000
_cell_formula_units_Z   1
loop_
 _symmetry_equiv_pos_site_id
 _symmetry_equiv_pos_as_xyz
  1  'x, y, z'
loop_
 _atom_site_type_symbol
 _atom_site_label
 _atom_site_symmetry_multiplicity
 _atom_site_fract_x
 _atom_site_fract_y
 _atom_site_fract_z
 _atom_site_occupancy
  Ni  Ni0  1  0.43806806  0.50003524  0.43518271  1
  Ni  Ni1  1  0.43809192  0.49996643  0.56483441  1
  Ni  Ni2  1  0.56194608  0.49993273  0.56478815  1
  Ni  Ni3  1  0.56192607  0.50000342  0.43521525  1
  Ni  Ni4  1  0.43832277  0.56384399  0.62752901  1
  Ni  Ni5  1  0.56170651  0.56392732  0.62745667  1
  Ni  Ni6  1  0.43837593  0.43608233  0.62753756  1
  Ni  Ni7  1  0.43828914  0.56393003  0.37248381  1
  Ni  Ni8  1  0.56202221  0.43587258  0.62786080  1
  Ni  Ni9  1  0.56171798  0.56394399  0.37251784  1
  Ni  Ni10  1  0.43832179  0.43603323  0.37247674  1
  Ni  Ni11  1  0.56169466  0.43608784  0.37250233  1
  Ni  Ni12  1  0.43820633  0.37163339  0.56521575  1
  Ni  Ni13  1  0.43830814  0.37158340  0.43461122  1
  Ni  Ni14  1  0.43831742  0.62834087  0.56539506  1
  Ni  Ni15  1  0.43829496  0.62842862  0.43458480  1
  Ni  Ni16  1  0.56177436  0.37171542  0.56552293  1
  Ni  Ni17  1  0.56166774  0.37161349  0.43458644  1
  Ni  Ni18  1  0.56158213  0.62846639  0.56539925  1
  Ni  Ni19  1  0.56166326  0.62841339  0.43457669  1
  Ni  Ni20  1  0.31288076  0.50000388  0.43493360  1
  Ni  Ni21  1  0.31285328  0.50000193  0.56507376  1
  Ni  Ni22  1  0.68702387  0.49999402  0.56502734  1
  Ni  Ni23  1  0.68708389  0.49999565  0.43492748  1
  Ni  Ni24  1  0.43862371  0.50001208  0.30963546  1
  Ni  Ni25  1  0.43864306  0.49995402  0.69028905  1
  Ni  Ni26  1  0.56168382  0.49966960  0.69038191  1
  Ni  Ni27  1  0.56137912  0.50001385  0.30956776  1
  Ni  Ni28  1  0.31598811  0.56237937  0.62553393  1
  Ni  Ni29  1  0.31596465  0.43760327  0.62555080  1
  Ni  Ni30  1  0.31597252  0.56235814  0.37447302  1
  Ni  Ni31  1  0.68391072  0.56243268  0.62539783  1
  Ni  Ni32  1  0.31604968  0.43756552  0.37449330  1
  Ni  Ni33  1  0.68378407  0.43765248  0.62571484  1
  Ni  Ni34  1  0.68403610  0.56240263  0.37446537  1
  Ni  Ni35  1  0.68399539  0.43759515  0.37445490  1
  Ni  Ni36  1  0.31495809  0.37164784  0.43663010  1
  Ni  Ni37  1  0.31492535  0.37171458  0.56333284  1
  Ni  Ni38  1  0.31494185  0.62830841  0.56332966  1
  Ni  Ni39  1  0.31492259  0.62831811  0.43667279  1
  Ni  Ni40  1  0.68502835  0.37175845  0.56335916  1
  Ni  Ni41  1  0.68511434  0.62845276  0.56330521  1
  Ni  Ni42  1  0.68503981  0.37168600  0.43669184  1
  Ni  Ni43  1  0.68510174  0.62835439  0.43662528  1
  Ni  Ni44  1  0.43937142  0.37181946  0.31032066  1
  Ni  Ni45  1  0.43924810  0.37188080  0.68962148  1
  Ni  Ni46  1  0.43933118  0.62814812  0.68965003  1
  Ni  Ni47  1  0.43933377  0.62817631  0.31035155  1
  Ni  Ni48  1  0.56063654  0.37183738  0.31034098  1
  Ni  Ni49  1  0.56088365  0.37180179  0.69013039  1
  Ni  Ni50  1  0.56064926  0.62823092  0.68964407  1
  Ni  Ni51  1  0.56066593  0.62815475  0.31033002  1
  Ni  Ni52  1  0.43971338  0.69091413  0.62698893  1
  Ni  Ni53  1  0.56025569  0.69095626  0.62698218  1
  Ni  Ni54  1  0.43970670  0.69093474  0.37301739  1
  Ni  Ni55  1  0.56028185  0.69092468  0.37301520  1
  Ni  Ni56  1  0.43967225  0.30902846  0.62680305  1
  Ni  Ni57  1  0.56038815  0.30949829  0.62724084  1
  Ni  Ni58  1  0.43970913  0.30904768  0.37302289  1
  Ni  Ni59  1  0.56026978  0.30908479  0.37300056  1
  Ni  Ni60  1  0.31219218  0.50000815  0.30771817  1
  Ni  Ni61  1  0.31224619  0.49999947  0.69223634  1
  Ni  Ni62  1  0.68727243  0.50011185  0.69160702  1
  Ni  Ni63  1  0.68777604  0.49999794  0.30774441  1
  Ni  Ni64  1  0.43432645  0.24095818  0.43281291  1
  Ni  Ni65  1  0.43431413  0.24098708  0.56719357  1
  Ni  Ni66  1  0.43428381  0.75908761  0.56720896  1
  Ni  Ni67  1  0.43428014  0.75911544  0.43275007  1
  Ni  Ni68  1  0.56576734  0.24099419  0.56728557  1
  Ni  Ni69  1  0.56569870  0.24093963  0.43279247  1
  Ni  Ni70  1  0.56569137  0.75905341  0.56722349  1
  Ni  Ni71  1  0.56568408  0.75898034  0.43279251  1
  Ni  Ni72  1  0.31573271  0.62847966  0.31105551  1
  Ni  Ni73  1  0.31576886  0.37154029  0.31107706  1
  Ni  Ni74  1  0.31576495  0.62847312  0.68893040  1
  Ni  Ni75  1  0.31578412  0.37158205  0.68892799  1
  Ni  Ni76  1  0.68478866  0.37140127  0.68944219  1
  Ni  Ni77  1  0.68423699  0.37151744  0.31108143  1
  Ni  Ni78  1  0.68421793  0.62845127  0.68890422  1
  Ni  Ni79  1  0.68425649  0.62847468  0.31107154  1
  Ni  Ni80  1  0.31605832  0.69129460  0.62836876  1
  Ni  Ni81  1  0.31604739  0.69134062  0.37164383  1
  Ni  Ni82  1  0.68397481  0.69135303  0.62837085  1
  Ni  Ni83  1  0.31602940  0.30872617  0.62837466  1
  Ni  Ni84  1  0.68390919  0.69124629  0.37164242  1
  Ni  Ni85  1  0.31608951  0.30869752  0.37165080  1
  Ni  Ni86  1  0.68399403  0.30883383  0.62852651  1
  Ni  Ni87  1  0.68391754  0.30867540  0.37166900  1
  Ni  Ni88  1  0.19921029  0.49999830  0.56087469  1
  Ni  Ni89  1  0.19921196  0.49998989  0.43915142  1
  Ni  Ni90  1  0.80076761  0.49999360  0.56078779  1
  Ni  Ni91  1  0.80077125  0.49993482  0.43916263  1
  Ni  Ni92  1  0.31813452  0.25070197  0.43401305  1
  Ni  Ni93  1  0.31810394  0.25071695  0.56594039  1
  Ni  Ni94  1  0.31814098  0.74926060  0.56598343  1
  Ni  Ni95  1  0.31813942  0.74928910  0.43403653  1
  Ni  Ni96  1  0.68182633  0.25076536  0.43407498  1
  Ni  Ni97  1  0.68174288  0.25082901  0.56597285  1
  Ni  Ni98  1  0.68186289  0.74928128  0.56595157  1
  Ni  Ni99  1  0.68185587  0.74923553  0.43401065  1
  Ni  Ni100  1  0.43692886  0.25084701  0.68512693  1
  Ni  Ni101  1  0.43695145  0.25082297  0.31476959  1
  Ni  Ni102  1  0.43691462  0.74916663  0.68526188  1
  Ni  Ni103  1  0.43693341  0.74916185  0.31475327  1
  Ni  Ni104  1  0.56305843  0.25084207  0.31473401  1
  Ni  Ni105  1  0.56293308  0.25091619  0.68509647  1
  Ni  Ni106  1  0.56305025  0.74912539  0.68524899  1
  Ni  Ni107  1  0.56305587  0.74917289  0.31475762  1
  Ni  Ni108  1  0.44131807  0.50001889  0.19096662  1
  Ni  Ni109  1  0.44139460  0.50003202  0.80913187  1
  Ni  Ni110  1  0.55864164  0.50000389  0.19099964  1
  Ni  Ni111  1  0.55854487  0.49986526  0.80881289  1
  H  H112  1  0.65424171  0.33849105  0.78787798  1
  Pt  Pt113  1  0.49996785  0.49997058  0.49996705  1
  Pt  Pt114  1  0.43782095  0.56389478  0.50002784  1
  Pt  Pt115  1  0.56206933  0.56393095  0.49989948  1
  Pt  Pt116  1  0.43780473  0.43610328  0.49995884  1
  Pt  Pt117  1  0.56213570  0.43606436  0.49996183  1
  Pt  Pt118  1  0.50002063  0.56429416  0.56622858  1
  Pt  Pt119  1  0.50009061  0.43567564  0.56620711  1
  Pt  Pt120  1  0.49996306  0.56439306  0.43375154  1
  Pt  Pt121  1  0.49996682  0.43563943  0.43375265  1
  Pt  Pt122  1  0.62554278  0.50004582  0.50001725  1
  Pt  Pt123  1  0.37444690  0.50000356  0.49997049  1
  Pt  Pt124  1  0.50014432  0.49992730  0.62769804  1
  Pt  Pt125  1  0.50002414  0.50003194  0.37234876  1
  Pt  Pt126  1  0.49997930  0.37177859  0.50002157  1
  Pt  Pt127  1  0.49994880  0.62824395  0.49997137  1
  Pt  Pt128  1  0.62421678  0.56469901  0.56495045  1
  Pt  Pt129  1  0.37576796  0.56427104  0.56524316  1
  Pt  Pt130  1  0.37570667  0.43574353  0.56521702  1
  Pt  Pt131  1  0.62416173  0.43561015  0.56531421  1
  Pt  Pt132  1  0.62421741  0.56431500  0.43474817  1
  Pt  Pt133  1  0.37577257  0.56433098  0.43474440  1
  Pt  Pt134  1  0.37577081  0.43569925  0.43470402  1
  Pt  Pt135  1  0.62421495  0.43569924  0.43477109  1
  Pt  Pt136  1  0.37689866  0.49995201  0.62678992  1
  Pt  Pt137  1  0.62302802  0.50022944  0.62636098  1
  Pt  Pt138  1  0.62311443  0.49999875  0.37321732  1
  Pt  Pt139  1  0.37693383  0.50000642  0.37318444  1
  Pt  Pt140  1  0.37565439  0.37095042  0.49998583  1
  Pt  Pt141  1  0.62430845  0.37096957  0.50000268  1
  Pt  Pt142  1  0.37566659  0.62906708  0.50000622  1
  Pt  Pt143  1  0.62437682  0.62912958  0.50002858  1
  Pt  Pt144  1  0.49971370  0.37168883  0.62764919  1
  Pt  Pt145  1  0.49996370  0.62843522  0.62781312  1
  Pt  Pt146  1  0.50000304  0.37153060  0.37216607  1
  Pt  Pt147  1  0.49999557  0.62847195  0.37211825  1
  Pt  Pt148  1  0.31245260  0.56587440  0.49997744  1
  Pt  Pt149  1  0.31241798  0.43408843  0.49989244  1
  Pt  Pt150  1  0.68759644  0.56599352  0.49985633  1
  Pt  Pt151  1  0.68749851  0.43411558  0.50006401  1
  Pt  Pt152  1  0.50013632  0.56462951  0.68974259  1
  Pt  Pt153  1  0.50010710  0.43526596  0.68986108  1
  Pt  Pt154  1  0.50001820  0.56461651  0.31015616  1
  Pt  Pt155  1  0.50000977  0.43538801  0.31017145  1
  Pt  Pt156  1  0.43792833  0.69315730  0.49998648  1
  Pt  Pt157  1  0.56204552  0.69316008  0.49997595  1
  Pt  Pt158  1  0.43792687  0.30685287  0.50001256  1
  Pt  Pt159  1  0.56207718  0.30688295  0.50000978  1
  Pt  Pt160  1  0.49997812  0.69321110  0.56573064  1
  Pt  Pt161  1  0.49999419  0.69320801  0.43421266  1
  Pt  Pt162  1  0.50015116  0.30689252  0.56578633  1
  Pt  Pt163  1  0.50000496  0.30679588  0.43425246  1
  Pt  Pt164  1  0.37766922  0.37216815  0.62733232  1
  Pt  Pt165  1  0.62258955  0.37204585  0.62789661  1
  Pt  Pt166  1  0.37764141  0.62783304  0.62738248  1
  Pt  Pt167  1  0.62232437  0.62793523  0.62735840  1
  Pt  Pt168  1  0.62235850  0.37212731  0.37259360  1
  Pt  Pt169  1  0.37767986  0.37209544  0.37254588  1
  Pt  Pt170  1  0.37760308  0.62788691  0.37260525  1
  Pt  Pt171  1  0.62236631  0.62784510  0.37259503  1
  Pt  Pt172  1  0.62168312  0.56313178  0.68835607  1
  Pt  Pt173  1  0.37823848  0.56314735  0.68843969  1
  Pt  Pt174  1  0.37824259  0.43684160  0.68846418  1
  Pt  Pt175  1  0.62216302  0.43639211  0.68900146  1
  Pt  Pt176  1  0.37818311  0.56318250  0.31156536  1
  Pt  Pt177  1  0.62177720  0.56314554  0.31154472  1
  Pt  Pt178  1  0.37824595  0.43684498  0.31153318  1
  Pt  Pt179  1  0.62176195  0.43685689  0.31155374  1
  Pt  Pt180  1  0.37721332  0.69088387  0.56459038  1
  Pt  Pt181  1  0.62279381  0.69095752  0.56457560  1
  Pt  Pt182  1  0.37718565  0.69092431  0.43541261  1
  Pt  Pt183  1  0.62276460  0.69086042  0.43542479  1
  Pt  Pt184  1  0.62273819  0.30926440  0.56468601  1
  Pt  Pt185  1  0.37710480  0.30909103  0.56451890  1
  Pt  Pt186  1  0.62275917  0.30911137  0.43540516  1
  Pt  Pt187  1  0.37718819  0.30907726  0.43541819  1
  Pt  Pt188  1  0.25606949  0.49999686  0.50003116  1
  Pt  Pt189  1  0.74383138  0.50000326  0.49998914  1
  Pt  Pt190  1  0.49981423  0.50020989  0.74990490  1
  Pt  Pt191  1  0.49994403  0.49999967  0.25006874  1
  Pt  Pt192  1  0.50001467  0.24609154  0.50001649  1
  Pt  Pt193  1  0.49999517  0.75398601  0.49997690  1
  Pt  Pt194  1  0.24959265  0.56804680  0.56820832  1
  Pt  Pt195  1  0.75036658  0.56802583  0.56813726  1
  Pt  Pt196  1  0.24962375  0.43196847  0.56822200  1
  Pt  Pt197  1  0.75050097  0.43192523  0.56826252  1
  Pt  Pt198  1  0.24958756  0.56803138  0.43176039  1
  Pt  Pt199  1  0.75051359  0.56804620  0.43171817  1
  Pt  Pt200  1  0.75032897  0.43197544  0.43178808  1
  Pt  Pt201  1  0.24964565  0.43195894  0.43175036  1
  Pt  Pt202  1  0.30720539  0.69868780  0.50000447  1
  Pt  Pt203  1  0.69294682  0.69881811  0.49997903  1
  Pt  Pt204  1  0.30715563  0.30130803  0.49997256  1
  Pt  Pt205  1  0.69268717  0.30142910  0.50000794  1
  Pt  Pt206  1  0.49995962  0.69470851  0.69262894  1
  Pt  Pt207  1  0.50001104  0.69473546  0.30735115  1
  Pt  Pt208  1  0.49975390  0.30555364  0.69231436  1
  Pt  Pt209  1  0.49999616  0.30527359  0.30737781  1
  Pt  Pt210  1  0.43373043  0.56818879  0.75952238  1
  Pt  Pt211  1  0.43356205  0.56836093  0.24022306  1
  Pt  Pt212  1  0.56641747  0.56842091  0.75991144  1
  Pt  Pt213  1  0.56647742  0.56835502  0.24014186  1
  Pt  Pt214  1  0.43356683  0.43173848  0.75990722  1
  Pt  Pt215  1  0.43352123  0.43165321  0.24011616  1
  Pt  Pt216  1  0.56620832  0.43156416  0.75846103  1
  Pt  Pt217  1  0.56642362  0.43167019  0.24020123  1
  Pt  Pt218  1  0.25205729  0.50002418  0.62752840  1
  Pt  Pt219  1  0.74787266  0.50004061  0.62733419  1
  Pt  Pt220  1  0.25206361  0.49999357  0.37249297  1
  Pt  Pt221  1  0.74790349  0.50000887  0.37248172  1
  Pt  Pt222  1  0.24780778  0.63095647  0.50000083  1
  Pt  Pt223  1  0.24773336  0.36904748  0.49997816  1
  Pt  Pt224  1  0.75221195  0.36907247  0.50000164  1
  Pt  Pt225  1  0.75229220  0.63098834  0.49996494  1
  Pt  Pt226  1  0.62522764  0.50022345  0.75646715  1
  Pt  Pt227  1  0.37456972  0.49998798  0.75633969  1
  Pt  Pt228  1  0.37458853  0.50001908  0.24369395  1
  Pt  Pt229  1  0.62543052  0.49999910  0.24367121  1
  Pt  Pt230  1  0.37269343  0.24075724  0.49999206  1
  Pt  Pt231  1  0.62721854  0.24081563  0.50001507  1
  Pt  Pt232  1  0.37272491  0.75922946  0.50001329  1
  Pt  Pt233  1  0.62728813  0.75922298  0.49997550  1
  Pt  Pt234  1  0.49972731  0.37028856  0.75678068  1
  Pt  Pt235  1  0.50001459  0.62976483  0.75674973  1
  Pt  Pt236  1  0.49998130  0.37030933  0.24320746  1
  Pt  Pt237  1  0.50003035  0.62970528  0.24323011  1
  Pt  Pt238  1  0.49999216  0.24246844  0.62923472  1
  Pt  Pt239  1  0.49996996  0.75752935  0.62931297  1
  Pt  Pt240  1  0.50002881  0.24242611  0.37066233  1
  Pt  Pt241  1  0.50001125  0.75755494  0.37067012  1
  Pt  Pt242  1  0.62669711  0.69313796  0.69033275  1
  Pt  Pt243  1  0.37335469  0.69307767  0.69034396  1
  Pt  Pt244  1  0.62661091  0.69311653  0.30967987  1
  Pt  Pt245  1  0.37336306  0.69312544  0.30964185  1
  Pt  Pt246  1  0.37335788  0.30694361  0.69027982  1
  Pt  Pt247  1  0.62682984  0.30667123  0.69074980  1
  Pt  Pt248  1  0.62662749  0.30685186  0.30965894  1
  Pt  Pt249  1  0.37335718  0.30680870  0.30963557  1
  Pt  Pt250  1  0.25862310  0.37035124  0.62923388  1
  Pt  Pt251  1  0.25867772  0.62968729  0.62919998  1
  Pt  Pt252  1  0.74130606  0.37036819  0.62916880  1
  Pt  Pt253  1  0.74129463  0.62962969  0.62916023  1
  Pt  Pt254  1  0.25867125  0.62971210  0.37079854  1
  Pt  Pt255  1  0.25865127  0.37028819  0.37078129  1
  Pt  Pt256  1  0.74131482  0.37031381  0.37079555  1
  Pt  Pt257  1  0.74136265  0.62968350  0.37077840  1
  Pt  Pt258  1  0.37321232  0.36943149  0.75132297  1
  Pt  Pt259  1  0.62860353  0.36855353  0.75350448  1
  Pt  Pt260  1  0.62683618  0.63056952  0.75126663  1
  Pt  Pt261  1  0.37321707  0.63050700  0.75132858  1
  Pt  Pt262  1  0.37318615  0.36941094  0.24872010  1
  Pt  Pt263  1  0.62681818  0.36944230  0.24874394  1
  Pt  Pt264  1  0.62682664  0.63056552  0.24872259  1
  Pt  Pt265  1  0.37314179  0.63057759  0.24867866  1
  Pt  Pt266  1  0.37622141  0.24716873  0.62702989  1
  Pt  Pt267  1  0.62381256  0.24738499  0.62712279  1
  Pt  Pt268  1  0.37624369  0.75284749  0.62706061  1
  Pt  Pt269  1  0.62373211  0.75289841  0.62705853  1
  Pt  Pt270  1  0.37626241  0.24710205  0.37295623  1
  Pt  Pt271  1  0.62371710  0.24711190  0.37294505  1
  Pt  Pt272  1  0.62377099  0.75286738  0.37296661  1
  Pt  Pt273  1  0.37624581  0.75287445  0.37292556  1
  Pt  Pt274  1  0.19241962  0.56036809  0.50000852  1
  Pt  Pt275  1  0.19238758  0.43965758  0.50000188  1
  Pt  Pt276  1  0.80759117  0.56031851  0.49995534  1
  Pt  Pt277  1  0.80760268  0.43967195  0.49992886  1
  Pt  Pt278  1  0.25684427  0.56500785  0.68592698  1
  Pt  Pt279  1  0.74305800  0.56493846  0.68587692  1
  Pt  Pt280  1  0.25684318  0.43504578  0.68595648  1
  Pt  Pt281  1  0.74321246  0.43514131  0.68577111  1
  Pt  Pt282  1  0.25682368  0.56501692  0.31409058  1
  Pt  Pt283  1  0.74316245  0.56500740  0.31405294  1
  Pt  Pt284  1  0.74315028  0.43502390  0.31408489  1
  Pt  Pt285  1  0.25687859  0.43498800  0.31412193  1
  Pt  Pt286  1  0.25532906  0.68983944  0.56892461  1
  Pt  Pt287  1  0.74467942  0.68987358  0.56896637  1
  Pt  Pt288  1  0.25533460  0.68984612  0.43107189  1
  Pt  Pt289  1  0.74471484  0.68986173  0.43101014  1
  Pt  Pt290  1  0.25534114  0.31019284  0.56894986  1
  Pt  Pt291  1  0.74459292  0.31018138  0.56888454  1
  Pt  Pt292  1  0.74464088  0.31018294  0.43111893  1
  Pt  Pt293  1  0.25531937  0.31013735  0.43104519  1
  Pt  Pt294  1  0.31537957  0.56514412  0.75072741  1
  Pt  Pt295  1  0.31535795  0.56516085  0.24926254  1
  Pt  Pt296  1  0.31539413  0.43483005  0.75074901  1
  Pt  Pt297  1  0.31538140  0.43483870  0.24927228  1
  Pt  Pt298  1  0.68455162  0.56509752  0.75067716  1
  Pt  Pt299  1  0.68464051  0.56516061  0.24925691  1
  Pt  Pt300  1  0.68510433  0.43596975  0.75074960  1
  Pt  Pt301  1  0.68462674  0.43482854  0.24926644  1
  Pt  Pt302  1  0.43567232  0.69096323  0.75239512  1
  Pt  Pt303  1  0.43569141  0.69095211  0.24761179  1
  Pt  Pt304  1  0.56433250  0.69100179  0.75235877  1
  Pt  Pt305  1  0.56432970  0.69097959  0.24760428  1
  Pt  Pt306  1  0.43562520  0.30891265  0.75238274  1
  Pt  Pt307  1  0.43570108  0.30900570  0.24762017  1
  Pt  Pt308  1  0.56382819  0.30908925  0.75184171  1
  Pt  Pt309  1  0.56429655  0.30904312  0.24760781  1
  Pt  Pt310  1  0.43794588  0.81510869  0.49999193  1
  Pt  Pt311  1  0.56208199  0.81508146  0.50000150  1
  Pt  Pt312  1  0.43796515  0.18492567  0.50000438  1
  Pt  Pt313  1  0.56206700  0.18490943  0.50001507  1
  Pt  Pt314  1  0.49994162  0.56127011  0.81648920  1
  Pt  Pt315  1  0.50030154  0.43874665  0.81625957  1
  Pt  Pt316  1  0.49998601  0.56111887  0.18361572  1
  Pt  Pt317  1  0.49999973  0.43889205  0.18360534  1
  Pt  Pt318  1  0.49999537  0.81432864  0.56426388  1
  Pt  Pt319  1  0.50001236  0.81432940  0.43570670  1
  Pt  Pt320  1  0.50000824  0.18568549  0.56426129  1
  Pt  Pt321  1  0.50000837  0.18570074  0.43573668  1
