# generated using pymatgen
data_Ni112HPt209
_symmetry_space_group_name_H-M   'P 1'
_cell_length_a   30.00000000
_cell_length_b   30.00000000
_cell_length_c   30.00000000
_cell_angle_alpha   90.00000000
_cell_angle_beta   90.00000000
_cell_angle_gamma   90.00000000
_symmetry_Int_Tables_number   1
_chemical_formula_structural   Ni112HPt209
_chemical_formula_sum   'Ni112 H1 Pt209'
_cell_volume   27000.00000000
_cell_formula_units_Z   1
loop_
 _symmetry_equiv_pos_site_id
 _symmetry_equiv_pos_as_xyz
  1  'x, y, z'
loop_
 _atom_site_type_symbol
 _atom_site_label
 _atom_site_symmetry_multiplicity
 _atom_site_fract_x
 _atom_site_fract_y
 _atom_site_fract_z
 _atom_site_occupancy
  Ni  Ni0  1  0.43784859  0.49993970  0.43496955  1
  Ni  Ni1  1  0.43786193  0.49994948  0.56502594  1
  Ni  Ni2  1  0.56202823  0.49992705  0.56494071  1
  Ni  Ni3  1  0.56199217  0.49991343  0.43505133  1
  Ni  Ni4  1  0.43828863  0.56353259  0.62803778  1
  Ni  Ni5  1  0.56172881  0.56355685  0.62799393  1
  Ni  Ni6  1  0.43824415  0.43643163  0.62804773  1
  Ni  Ni7  1  0.43824405  0.56350366  0.37195281  1
  Ni  Ni8  1  0.56169363  0.43650422  0.62797906  1
  Ni  Ni9  1  0.56167249  0.56349380  0.37199833  1
  Ni  Ni10  1  0.43820166  0.43640218  0.37194333  1
  Ni  Ni11  1  0.56165251  0.43647812  0.37198311  1
  Ni  Ni12  1  0.43822921  0.37220934  0.56561669  1
  Ni  Ni13  1  0.43822550  0.37218484  0.43435267  1
  Ni  Ni14  1  0.43831724  0.62771856  0.56562861  1
  Ni  Ni15  1  0.43830562  0.62772279  0.43439129  1
  Ni  Ni16  1  0.56154215  0.37211645  0.56577010  1
  Ni  Ni17  1  0.56151083  0.37209076  0.43417921  1
  Ni  Ni18  1  0.56166158  0.62771731  0.56561057  1
  Ni  Ni19  1  0.56165968  0.62770418  0.43438240  1
  Ni  Ni20  1  0.31263212  0.49997628  0.43485595  1
  Ni  Ni21  1  0.31264529  0.49998006  0.56514039  1
  Ni  Ni22  1  0.68712931  0.49996712  0.56478849  1
  Ni  Ni23  1  0.68712088  0.49993566  0.43519062  1
  Ni  Ni24  1  0.43857919  0.49995084  0.30858883  1
  Ni  Ni25  1  0.43860959  0.49998313  0.69141607  1
  Ni  Ni26  1  0.56143176  0.50003262  0.69138530  1
  Ni  Ni27  1  0.56137297  0.49995961  0.30860666  1
  Ni  Ni28  1  0.31582685  0.56212183  0.62595071  1
  Ni  Ni29  1  0.31580172  0.43784254  0.62598991  1
  Ni  Ni30  1  0.31581088  0.56211605  0.37404036  1
  Ni  Ni31  1  0.68433213  0.56208624  0.62563784  1
  Ni  Ni32  1  0.31578535  0.43782486  0.37397839  1
  Ni  Ni33  1  0.68433626  0.43793587  0.62567783  1
  Ni  Ni34  1  0.68412304  0.56195479  0.37419225  1
  Ni  Ni35  1  0.68427263  0.43786992  0.37428856  1
  Ni  Ni36  1  0.31478209  0.37228073  0.43637559  1
  Ni  Ni37  1  0.31479247  0.37228105  0.56361322  1
  Ni  Ni38  1  0.31484662  0.62771681  0.56356833  1
  Ni  Ni39  1  0.31483541  0.62772298  0.43643219  1
  Ni  Ni40  1  0.68497913  0.37190756  0.56365372  1
  Ni  Ni41  1  0.68541971  0.62775011  0.56340263  1
  Ni  Ni42  1  0.68493990  0.37178925  0.43632540  1
  Ni  Ni43  1  0.68538240  0.62770802  0.43653483  1
  Ni  Ni44  1  0.43930855  0.37258978  0.30953537  1
  Ni  Ni45  1  0.43932072  0.37260678  0.69047021  1
  Ni  Ni46  1  0.43933614  0.62746595  0.69046512  1
  Ni  Ni47  1  0.43930826  0.62748657  0.30951474  1
  Ni  Ni48  1  0.56058676  0.37261799  0.30955856  1
  Ni  Ni49  1  0.56062497  0.37264573  0.69040154  1
  Ni  Ni50  1  0.56071633  0.62731579  0.69034563  1
  Ni  Ni51  1  0.56070256  0.62732298  0.30961237  1
  Ni  Ni52  1  0.43981471  0.68998960  0.62743122  1
  Ni  Ni53  1  0.56038695  0.68981891  0.62735953  1
  Ni  Ni54  1  0.43977230  0.68999584  0.37256852  1
  Ni  Ni55  1  0.56036922  0.68982336  0.37261598  1
  Ni  Ni56  1  0.43962169  0.30995921  0.62739097  1
  Ni  Ni57  1  0.56011460  0.30992934  0.62746033  1
  Ni  Ni58  1  0.43962808  0.30994708  0.37260152  1
  Ni  Ni59  1  0.56009623  0.30991111  0.37250509  1
  Ni  Ni60  1  0.31234189  0.50002624  0.30742141  1
  Ni  Ni61  1  0.31237826  0.50001025  0.69253861  1
  Ni  Ni62  1  0.68779152  0.49992172  0.69221279  1
  Ni  Ni63  1  0.68770515  0.49987194  0.30770505  1
  Ni  Ni64  1  0.43409257  0.24217525  0.43281073  1
  Ni  Ni65  1  0.43410340  0.24216525  0.56717683  1
  Ni  Ni66  1  0.43447948  0.75769583  0.56723517  1
  Ni  Ni67  1  0.43447071  0.75770816  0.43277573  1
  Ni  Ni68  1  0.56542931  0.24181715  0.56737773  1
  Ni  Ni69  1  0.56542134  0.24186045  0.43262178  1
  Ni  Ni70  1  0.56573958  0.75774224  0.56732121  1
  Ni  Ni71  1  0.56573114  0.75773270  0.43268921  1
  Ni  Ni72  1  0.31547874  0.62791254  0.31040910  1
  Ni  Ni73  1  0.31542415  0.37203938  0.31028369  1
  Ni  Ni74  1  0.31549932  0.62793513  0.68957598  1
  Ni  Ni75  1  0.31541985  0.37205570  0.68969149  1
  Ni  Ni76  1  0.68470145  0.37215676  0.68935124  1
  Ni  Ni77  1  0.68462056  0.37206047  0.31059379  1
  Ni  Ni78  1  0.68488602  0.62771121  0.68939987  1
  Ni  Ni79  1  0.68482082  0.62767147  0.31050838  1
  Ni  Ni80  1  0.31607758  0.69042790  0.62873230  1
  Ni  Ni81  1  0.31606022  0.69043965  0.37127110  1
  Ni  Ni82  1  0.68416118  0.69016368  0.62846400  1
  Ni  Ni83  1  0.31598846  0.30953377  0.62880226  1
  Ni  Ni84  1  0.68409769  0.69008970  0.37144232  1
  Ni  Ni85  1  0.31600222  0.30954333  0.37119582  1
  Ni  Ni86  1  0.68394258  0.30954892  0.62864779  1
  Ni  Ni87  1  0.68391639  0.30945021  0.37131083  1
  Ni  Ni88  1  0.19882912  0.50002925  0.56100005  1
  Ni  Ni89  1  0.19883078  0.50002012  0.43898562  1
  Ni  Ni90  1  0.80172728  0.50011830  0.56005674  1
  Ni  Ni91  1  0.80163581  0.50001039  0.43956992  1
  Ni  Ni92  1  0.31816785  0.25173361  0.43375682  1
  Ni  Ni93  1  0.31816385  0.25172395  0.56624784  1
  Ni  Ni94  1  0.31828550  0.74824959  0.56621843  1
  Ni  Ni95  1  0.31827278  0.74827077  0.43378629  1
  Ni  Ni96  1  0.68159336  0.25139366  0.43375095  1
  Ni  Ni97  1  0.68157671  0.25142361  0.56621367  1
  Ni  Ni98  1  0.68200377  0.74816594  0.56603935  1
  Ni  Ni99  1  0.68193604  0.74814078  0.43389286  1
  Ni  Ni100  1  0.43686233  0.25187698  0.68597677  1
  Ni  Ni101  1  0.43682322  0.25186613  0.31404458  1
  Ni  Ni102  1  0.43701039  0.74810968  0.68582348  1
  Ni  Ni103  1  0.43699082  0.74813657  0.31416184  1
  Ni  Ni104  1  0.56294142  0.25186317  0.31407109  1
  Ni  Ni105  1  0.56296025  0.25190258  0.68588689  1
  Ni  Ni106  1  0.56333834  0.74789775  0.68576603  1
  Ni  Ni107  1  0.56330380  0.74792666  0.31422592  1
  Ni  Ni108  1  0.44118005  0.50002644  0.18960922  1
  Ni  Ni109  1  0.44122607  0.50003429  0.81033858  1
  Ni  Ni110  1  0.55888261  0.50002275  0.18973535  1
  Ni  Ni111  1  0.55897169  0.50006551  0.81021418  1
  H  H112  1  0.85873594  0.58071677  0.50595014  1
  Pt  Pt113  1  0.49985607  0.49989924  0.50000377  1
  Pt  Pt114  1  0.43768606  0.56366178  0.50000545  1
  Pt  Pt115  1  0.56216201  0.56356687  0.49999751  1
  Pt  Pt116  1  0.43763213  0.43622909  0.49999057  1
  Pt  Pt117  1  0.56214589  0.43618021  0.49999336  1
  Pt  Pt118  1  0.49996956  0.56391436  0.56640344  1
  Pt  Pt119  1  0.49990619  0.43599648  0.56642333  1
  Pt  Pt120  1  0.49994359  0.56391864  0.43359919  1
  Pt  Pt121  1  0.49989939  0.43596576  0.43358045  1
  Pt  Pt122  1  0.62569296  0.49978740  0.49999313  1
  Pt  Pt123  1  0.37419562  0.49996668  0.49998739  1
  Pt  Pt124  1  0.49999776  0.49997888  0.62821247  1
  Pt  Pt125  1  0.49994867  0.49993888  0.37180231  1
  Pt  Pt126  1  0.49991192  0.37221705  0.49999542  1
  Pt  Pt127  1  0.50000888  0.62770893  0.49999467  1
  Pt  Pt128  1  0.62430194  0.56398205  0.56529442  1
  Pt  Pt129  1  0.37565232  0.56398832  0.56544112  1
  Pt  Pt130  1  0.37558779  0.43595136  0.56544638  1
  Pt  Pt131  1  0.62428237  0.43580440  0.56536610  1
  Pt  Pt132  1  0.62425190  0.56395068  0.43466630  1
  Pt  Pt133  1  0.37564752  0.56398201  0.43454726  1
  Pt  Pt134  1  0.37555783  0.43594181  0.43452282  1
  Pt  Pt135  1  0.62418896  0.43573532  0.43459307  1
  Pt  Pt136  1  0.37683436  0.49996158  0.62729500  1
  Pt  Pt137  1  0.62319386  0.49997150  0.62712225  1
  Pt  Pt138  1  0.62313516  0.49991925  0.37285060  1
  Pt  Pt139  1  0.37677891  0.49996511  0.37267338  1
  Pt  Pt140  1  0.37540826  0.37151166  0.49998915  1
  Pt  Pt141  1  0.62392195  0.37080139  0.49999329  1
  Pt  Pt142  1  0.37550369  0.62849085  0.49999498  1
  Pt  Pt143  1  0.62438678  0.62841144  0.49997646  1
  Pt  Pt144  1  0.49988185  0.37224867  0.62828560  1
  Pt  Pt145  1  0.49997948  0.62771179  0.62829458  1
  Pt  Pt146  1  0.49987243  0.37223380  0.37167614  1
  Pt  Pt147  1  0.49997004  0.62770902  0.37167926  1
  Pt  Pt148  1  0.31223960  0.56564285  0.49999871  1
  Pt  Pt149  1  0.31217195  0.43434485  0.49999798  1
  Pt  Pt150  1  0.68781237  0.56576310  0.50000495  1
  Pt  Pt151  1  0.68712796  0.43318339  0.49988484  1
  Pt  Pt152  1  0.49999017  0.56424436  0.69071201  1
  Pt  Pt153  1  0.49999409  0.43576566  0.69075653  1
  Pt  Pt154  1  0.49994837  0.56422935  0.30929662  1
  Pt  Pt155  1  0.49996641  0.43575749  0.30922082  1
  Pt  Pt156  1  0.43788276  0.69226609  0.50000643  1
  Pt  Pt157  1  0.56218802  0.69227102  0.50000105  1
  Pt  Pt158  1  0.43774511  0.30768802  0.49999656  1
  Pt  Pt159  1  0.56193704  0.30755673  0.49999727  1
  Pt  Pt160  1  0.50005638  0.69220895  0.56597926  1
  Pt  Pt161  1  0.50004051  0.69221821  0.43402629  1
  Pt  Pt162  1  0.49984419  0.30763421  0.56598449  1
  Pt  Pt163  1  0.49983369  0.30763081  0.43400517  1
  Pt  Pt164  1  0.37758180  0.37280626  0.62803858  1
  Pt  Pt165  1  0.62232530  0.37277531  0.62795996  1
  Pt  Pt166  1  0.37768386  0.62717175  0.62797788  1
  Pt  Pt167  1  0.62246373  0.62706060  0.62784958  1
  Pt  Pt168  1  0.62230707  0.37273326  0.37202262  1
  Pt  Pt169  1  0.37757134  0.37280521  0.37193930  1
  Pt  Pt170  1  0.37764389  0.62718216  0.37200514  1
  Pt  Pt171  1  0.62247076  0.62702918  0.37208862  1
  Pt  Pt172  1  0.62200936  0.56272277  0.68914090  1
  Pt  Pt173  1  0.37821815  0.56278126  0.68931906  1
  Pt  Pt174  1  0.37821744  0.43721039  0.68940398  1
  Pt  Pt175  1  0.62184249  0.43722794  0.68917790  1
  Pt  Pt176  1  0.37820223  0.56277572  0.31063573  1
  Pt  Pt177  1  0.62192036  0.56268294  0.31078059  1
  Pt  Pt178  1  0.37819891  0.43721012  0.31058819  1
  Pt  Pt179  1  0.62179550  0.43717085  0.31077436  1
  Pt  Pt180  1  0.37721533  0.68995041  0.56480607  1
  Pt  Pt181  1  0.62293911  0.68989173  0.56472804  1
  Pt  Pt182  1  0.37720704  0.68995570  0.43519269  1
  Pt  Pt183  1  0.62290122  0.68987540  0.43521214  1
  Pt  Pt184  1  0.62255300  0.30967743  0.56495235  1
  Pt  Pt185  1  0.37711641  0.31004922  0.56479101  1
  Pt  Pt186  1  0.62250689  0.30962556  0.43502638  1
  Pt  Pt187  1  0.37711898  0.31005638  0.43520643  1
  Pt  Pt188  1  0.25558402  0.50000639  0.49998817  1
  Pt  Pt189  1  0.74439255  0.50002157  0.49996106  1
  Pt  Pt190  1  0.50004060  0.50003861  0.75108446  1
  Pt  Pt191  1  0.49994944  0.50002445  0.24886496  1
  Pt  Pt192  1  0.49981160  0.24699624  0.49999017  1
  Pt  Pt193  1  0.50007014  0.75286646  0.49999565  1
  Pt  Pt194  1  0.24927711  0.56785087  0.56819494  1
  Pt  Pt195  1  0.75045588  0.56751010  0.56748498  1
  Pt  Pt196  1  0.24926241  0.43213485  0.56827812  1
  Pt  Pt197  1  0.75037052  0.43270068  0.56758355  1
  Pt  Pt198  1  0.24925992  0.56783562  0.43178517  1
  Pt  Pt199  1  0.75029728  0.56741106  0.43255633  1
  Pt  Pt200  1  0.75037447  0.43252792  0.43226626  1
  Pt  Pt201  1  0.24924599  0.43212940  0.43170654  1
  Pt  Pt202  1  0.30694350  0.69807582  0.49999736  1
  Pt  Pt203  1  0.69311221  0.69760338  0.49995747  1
  Pt  Pt204  1  0.30676713  0.30183381  0.50000759  1
  Pt  Pt205  1  0.69299955  0.30143829  0.49997832  1
  Pt  Pt206  1  0.50008953  0.69373535  0.69335108  1
  Pt  Pt207  1  0.50006170  0.69376690  0.30663725  1
  Pt  Pt208  1  0.49993755  0.30627283  0.69327950  1
  Pt  Pt209  1  0.49992746  0.30625328  0.30669326  1
  Pt  Pt210  1  0.43334135  0.56823533  0.76108983  1
  Pt  Pt211  1  0.43332272  0.56824472  0.23886003  1
  Pt  Pt212  1  0.56684526  0.56826137  0.76098008  1
  Pt  Pt213  1  0.56668742  0.56815850  0.23910643  1
  Pt  Pt214  1  0.43326913  0.43175410  0.76130530  1
  Pt  Pt215  1  0.43322733  0.43174839  0.23866941  1
  Pt  Pt216  1  0.56681922  0.43173363  0.76115230  1
  Pt  Pt217  1  0.56674686  0.43173253  0.23882377  1
  Pt  Pt218  1  0.25184331  0.49999730  0.62767039  1
  Pt  Pt219  1  0.74838376  0.50010268  0.62727218  1
  Pt  Pt220  1  0.25184456  0.49997452  0.37231517  1
  Pt  Pt221  1  0.74826991  0.50008560  0.37264890  1
  Pt  Pt222  1  0.24740585  0.63059508  0.49997906  1
  Pt  Pt223  1  0.24737838  0.36938551  0.49999015  1
  Pt  Pt224  1  0.75248087  0.36903230  0.49998625  1
  Pt  Pt225  1  0.75333406  0.63066828  0.49994499  1
  Pt  Pt226  1  0.62573037  0.49998993  0.75733100  1
  Pt  Pt227  1  0.37439003  0.50002856  0.75754290  1
  Pt  Pt228  1  0.37437432  0.50001855  0.24242643  1
  Pt  Pt229  1  0.62568831  0.49994980  0.24259267  1
  Pt  Pt230  1  0.37263878  0.24188101  0.49999357  1
  Pt  Pt231  1  0.62705313  0.24169613  0.49998023  1
  Pt  Pt232  1  0.37271075  0.75811694  0.49998842  1
  Pt  Pt233  1  0.62749931  0.75802590  0.49997171  1
  Pt  Pt234  1  0.50004112  0.37095096  0.75775800  1
  Pt  Pt235  1  0.50008505  0.62910726  0.75768669  1
  Pt  Pt236  1  0.49998049  0.37093370  0.24224638  1
  Pt  Pt237  1  0.50002867  0.62911147  0.24230077  1
  Pt  Pt238  1  0.49984262  0.24345847  0.62990424  1
  Pt  Pt239  1  0.50017925  0.75635868  0.62989242  1
  Pt  Pt240  1  0.49982936  0.24345135  0.37009660  1
  Pt  Pt241  1  0.50014903  0.75637372  0.37011492  1
  Pt  Pt242  1  0.62717429  0.69213171  0.69077347  1
  Pt  Pt243  1  0.37320519  0.69232309  0.69093053  1
  Pt  Pt244  1  0.62711190  0.69211303  0.30914234  1
  Pt  Pt245  1  0.37317019  0.69234962  0.30905877  1
  Pt  Pt246  1  0.37312958  0.30764996  0.69102049  1
  Pt  Pt247  1  0.62687538  0.30765367  0.69089665  1
  Pt  Pt248  1  0.62681773  0.30763599  0.30904917  1
  Pt  Pt249  1  0.37312457  0.30766225  0.30898201  1
  Pt  Pt250  1  0.25850369  0.37097900  0.62970626  1
  Pt  Pt251  1  0.25855463  0.62901673  0.62963795  1
  Pt  Pt252  1  0.74159475  0.37104549  0.62917184  1
  Pt  Pt253  1  0.74194367  0.62883614  0.62935526  1
  Pt  Pt254  1  0.25853060  0.62900960  0.37036695  1
  Pt  Pt255  1  0.25852241  0.37097391  0.37027498  1
  Pt  Pt256  1  0.74150998  0.37091097  0.37071978  1
  Pt  Pt257  1  0.74189356  0.62870668  0.37057545  1
  Pt  Pt258  1  0.37273666  0.36995140  0.75215805  1
  Pt  Pt259  1  0.62742768  0.37003719  0.75190287  1
  Pt  Pt260  1  0.62759363  0.62986028  0.75188392  1
  Pt  Pt261  1  0.37276737  0.63007880  0.75210356  1
  Pt  Pt262  1  0.37271095  0.36994067  0.24783090  1
  Pt  Pt263  1  0.62737258  0.37001380  0.24802953  1
  Pt  Pt264  1  0.62747907  0.62983817  0.24804958  1
  Pt  Pt265  1  0.37273877  0.63009019  0.24787940  1
  Pt  Pt266  1  0.37637772  0.24827182  0.62744692  1
  Pt  Pt267  1  0.62347925  0.24808512  0.62751619  1
  Pt  Pt268  1  0.37649676  0.75174598  0.62737796  1
  Pt  Pt269  1  0.62383284  0.75162171  0.62731670  1
  Pt  Pt270  1  0.37635673  0.24827396  0.37254841  1
  Pt  Pt271  1  0.62346259  0.24805989  0.37244573  1
  Pt  Pt272  1  0.62380585  0.75158017  0.37263348  1
  Pt  Pt273  1  0.37649257  0.75176529  0.37262182  1
  Pt  Pt274  1  0.19185719  0.56015897  0.49999037  1
  Pt  Pt275  1  0.19195817  0.43982844  0.49998726  1
  Pt  Pt276  1  0.81069038  0.56060371  0.49994646  1
  Pt  Pt277  1  0.80824579  0.43923776  0.49989553  1
  Pt  Pt278  1  0.25663546  0.56450695  0.68652787  1
  Pt  Pt279  1  0.74376728  0.56438812  0.68621059  1
  Pt  Pt280  1  0.25661549  0.43552258  0.68658078  1
  Pt  Pt281  1  0.74362805  0.43549554  0.68612170  1
  Pt  Pt282  1  0.25661192  0.56450856  0.31347158  1
  Pt  Pt283  1  0.74364771  0.56430876  0.31369974  1
  Pt  Pt284  1  0.74357096  0.43543407  0.31385506  1
  Pt  Pt285  1  0.25662071  0.43550794  0.31340133  1
  Pt  Pt286  1  0.25540030  0.68902627  0.56917518  1
  Pt  Pt287  1  0.74491650  0.68909338  0.56912889  1
  Pt  Pt288  1  0.25538768  0.68904203  0.43081983  1
  Pt  Pt289  1  0.74482495  0.68905809  0.43073572  1
  Pt  Pt290  1  0.25532293  0.31099112  0.56921284  1
  Pt  Pt291  1  0.74447529  0.31063145  0.56913329  1
  Pt  Pt292  1  0.74450671  0.31057278  0.43082970  1
  Pt  Pt293  1  0.25533559  0.31098606  0.43077855  1
  Pt  Pt294  1  0.31498373  0.56479136  0.75156865  1
  Pt  Pt295  1  0.31494974  0.56477434  0.24842432  1
  Pt  Pt296  1  0.31493875  0.43528678  0.75160344  1
  Pt  Pt297  1  0.31493198  0.43526604  0.24838932  1
  Pt  Pt298  1  0.68539219  0.56450726  0.75127364  1
  Pt  Pt299  1  0.68528850  0.56450558  0.24860495  1
  Pt  Pt300  1  0.68527906  0.43535139  0.75121929  1
  Pt  Pt301  1  0.68524378  0.43531388  0.24874954  1
  Pt  Pt302  1  0.43558699  0.69015602  0.75302016  1
  Pt  Pt303  1  0.43556782  0.69016823  0.24696499  1
  Pt  Pt304  1  0.56475225  0.68990262  0.75284521  1
  Pt  Pt305  1  0.56467265  0.68994846  0.24709075  1
  Pt  Pt306  1  0.43558588  0.30990605  0.75307314  1
  Pt  Pt307  1  0.43553089  0.30988376  0.24692167  1
  Pt  Pt308  1  0.56450108  0.30998924  0.75291651  1
  Pt  Pt309  1  0.56444294  0.30996075  0.24702441  1
  Pt  Pt310  1  0.43803788  0.81396178  0.49999787  1
  Pt  Pt311  1  0.56218482  0.81385402  0.49998568  1
  Pt  Pt312  1  0.43765948  0.18570167  0.49999223  1
  Pt  Pt313  1  0.56180430  0.18587014  0.49999791  1
  Pt  Pt314  1  0.50012941  0.56087966  0.81746566  1
  Pt  Pt315  1  0.50011538  0.43926806  0.81750729  1
  Pt  Pt316  1  0.50009376  0.56089730  0.18246751  1
  Pt  Pt317  1  0.50004432  0.43922075  0.18244355  1
  Pt  Pt318  1  0.50009708  0.81288317  0.56450752  1
  Pt  Pt319  1  0.50009557  0.81289597  0.43548652  1
  Pt  Pt320  1  0.49965809  0.18698188  0.56448174  1
  Pt  Pt321  1  0.49965975  0.18695880  0.43551223  1
