# generated using pymatgen
data_Ni112HPt209
_symmetry_space_group_name_H-M   'P 1'
_cell_length_a   30.00000000
_cell_length_b   30.00000000
_cell_length_c   30.00000000
_cell_angle_alpha   90.00000000
_cell_angle_beta   90.00000000
_cell_angle_gamma   90.00000000
_symmetry_Int_Tables_number   1
_chemical_formula_structural   Ni112HPt209
_chemical_formula_sum   'Ni112 H1 Pt209'
_cell_volume   27000.00000000
_cell_formula_units_Z   1
loop_
 _symmetry_equiv_pos_site_id
 _symmetry_equiv_pos_as_xyz
  1  'x, y, z'
loop_
 _atom_site_type_symbol
 _atom_site_label
 _atom_site_symmetry_multiplicity
 _atom_site_fract_x
 _atom_site_fract_y
 _atom_site_fract_z
 _atom_site_occupancy
  Ni  Ni0  1  0.43780536  0.49986221  0.43493640  1
  Ni  Ni1  1  0.43786347  0.49986860  0.56511310  1
  Ni  Ni2  1  0.56179391  0.49945546  0.56513236  1
  Ni  Ni3  1  0.56200012  0.49986004  0.43499771  1
  Ni  Ni4  1  0.43837455  0.56352619  0.62805871  1
  Ni  Ni5  1  0.56198721  0.56360682  0.62776760  1
  Ni  Ni6  1  0.43829625  0.43641768  0.62815731  1
  Ni  Ni7  1  0.43821590  0.56345797  0.37186532  1
  Ni  Ni8  1  0.56177365  0.43628543  0.62800828  1
  Ni  Ni9  1  0.56157857  0.56342770  0.37201200  1
  Ni  Ni10  1  0.43826172  0.43644877  0.37188583  1
  Ni  Ni11  1  0.56165731  0.43641956  0.37195760  1
  Ni  Ni12  1  0.43822854  0.37222640  0.56577472  1
  Ni  Ni13  1  0.43818520  0.37222116  0.43428383  1
  Ni  Ni14  1  0.43822706  0.62763934  0.56558668  1
  Ni  Ni15  1  0.43817721  0.62760881  0.43432133  1
  Ni  Ni16  1  0.56170891  0.37208409  0.56565915  1
  Ni  Ni17  1  0.56167413  0.37217421  0.43436840  1
  Ni  Ni18  1  0.56169040  0.62776963  0.56546163  1
  Ni  Ni19  1  0.56164502  0.62760764  0.43452150  1
  Ni  Ni20  1  0.31260341  0.49994196  0.43479427  1
  Ni  Ni21  1  0.31261164  0.49994561  0.56520104  1
  Ni  Ni22  1  0.68745159  0.49980643  0.56498602  1
  Ni  Ni23  1  0.68729200  0.49988038  0.43490043  1
  Ni  Ni24  1  0.43859484  0.49999310  0.30853590  1
  Ni  Ni25  1  0.43888741  0.50004758  0.69139531  1
  Ni  Ni26  1  0.56179435  0.50022557  0.69101058  1
  Ni  Ni27  1  0.56134326  0.49992522  0.30859909  1
  Ni  Ni28  1  0.31581456  0.56198656  0.62603518  1
  Ni  Ni29  1  0.31576191  0.43796653  0.62612511  1
  Ni  Ni30  1  0.31570809  0.56199396  0.37399848  1
  Ni  Ni31  1  0.68457872  0.56260979  0.62487752  1
  Ni  Ni32  1  0.31568688  0.43792020  0.37394290  1
  Ni  Ni33  1  0.68438731  0.43757504  0.62581877  1
  Ni  Ni34  1  0.68413662  0.56202305  0.37423158  1
  Ni  Ni35  1  0.68419096  0.43792578  0.37406067  1
  Ni  Ni36  1  0.31472693  0.37234877  0.43637628  1
  Ni  Ni37  1  0.31478240  0.37233624  0.56364236  1
  Ni  Ni38  1  0.31484118  0.62751314  0.56362036  1
  Ni  Ni39  1  0.31476572  0.62749814  0.43639769  1
  Ni  Ni40  1  0.68523176  0.37211521  0.56350577  1
  Ni  Ni41  1  0.68580719  0.62834984  0.56318511  1
  Ni  Ni42  1  0.68516933  0.37223052  0.43637278  1
  Ni  Ni43  1  0.68495202  0.62748994  0.43664888  1
  Ni  Ni44  1  0.43934528  0.37267337  0.30942226  1
  Ni  Ni45  1  0.43942889  0.37263850  0.69060731  1
  Ni  Ni46  1  0.43952827  0.62735349  0.69035740  1
  Ni  Ni47  1  0.43928734  0.62731205  0.30940738  1
  Ni  Ni48  1  0.56060660  0.37262665  0.30940518  1
  Ni  Ni49  1  0.56080083  0.37263504  0.69049778  1
  Ni  Ni50  1  0.56125333  0.62768528  0.68967340  1
  Ni  Ni51  1  0.56061330  0.62735244  0.30944954  1
  Ni  Ni52  1  0.43961945  0.68986065  0.62743314  1
  Ni  Ni53  1  0.56046527  0.69020748  0.62683356  1
  Ni  Ni54  1  0.43951111  0.68975491  0.37251049  1
  Ni  Ni55  1  0.56022864  0.68979185  0.37256169  1
  Ni  Ni56  1  0.43964252  0.31014648  0.62745444  1
  Ni  Ni57  1  0.56029845  0.30996657  0.62736507  1
  Ni  Ni58  1  0.43957526  0.31011704  0.37248470  1
  Ni  Ni59  1  0.56024778  0.31005020  0.37254423  1
  Ni  Ni60  1  0.31221535  0.49998750  0.30735476  1
  Ni  Ni61  1  0.31233355  0.50004063  0.69268930  1
  Ni  Ni62  1  0.68818825  0.50017512  0.69201467  1
  Ni  Ni63  1  0.68772184  0.50004124  0.30750018  1
  Ni  Ni64  1  0.43410016  0.24217710  0.43246455  1
  Ni  Ni65  1  0.43410054  0.24215064  0.56737207  1
  Ni  Ni66  1  0.43407816  0.75779443  0.56724804  1
  Ni  Ni67  1  0.43412272  0.75768738  0.43239377  1
  Ni  Ni68  1  0.56565223  0.24212975  0.56735943  1
  Ni  Ni69  1  0.56564910  0.24214149  0.43249897  1
  Ni  Ni70  1  0.56525940  0.75791100  0.56710561  1
  Ni  Ni71  1  0.56551680  0.75779939  0.43238412  1
  Ni  Ni72  1  0.31535386  0.62761454  0.31030740  1
  Ni  Ni73  1  0.31538720  0.37236816  0.31022786  1
  Ni  Ni74  1  0.31546542  0.62765814  0.68973324  1
  Ni  Ni75  1  0.31544215  0.37242497  0.68983799  1
  Ni  Ni76  1  0.68460035  0.37209871  0.68954967  1
  Ni  Ni77  1  0.68454623  0.37231037  0.31033150  1
  Ni  Ni78  1  0.68510804  0.62827442  0.68811575  1
  Ni  Ni79  1  0.68448814  0.62762817  0.31055778  1
  Ni  Ni80  1  0.31605971  0.69014907  0.62889853  1
  Ni  Ni81  1  0.31592599  0.69016214  0.37109381  1
  Ni  Ni82  1  0.68459793  0.69140490  0.62768147  1
  Ni  Ni83  1  0.31597823  0.30980613  0.62900874  1
  Ni  Ni84  1  0.68378400  0.69026459  0.37136608  1
  Ni  Ni85  1  0.31591587  0.30975334  0.37096639  1
  Ni  Ni86  1  0.68395512  0.30949566  0.62880745  1
  Ni  Ni87  1  0.68391218  0.30971481  0.37108215  1
  Ni  Ni88  1  0.19866283  0.49993872  0.56104520  1
  Ni  Ni89  1  0.19861326  0.49996731  0.43899732  1
  Ni  Ni90  1  0.80150265  0.49955002  0.56075906  1
  Ni  Ni91  1  0.80138283  0.49991060  0.43903001  1
  Ni  Ni92  1  0.31819543  0.25177451  0.43361313  1
  Ni  Ni93  1  0.31822068  0.25190209  0.56639525  1
  Ni  Ni94  1  0.31821933  0.74811047  0.56628964  1
  Ni  Ni95  1  0.31817368  0.74811445  0.43368055  1
  Ni  Ni96  1  0.68165764  0.25169618  0.43362666  1
  Ni  Ni97  1  0.68157724  0.25164222  0.56613050  1
  Ni  Ni98  1  0.68196849  0.74959299  0.56503863  1
  Ni  Ni99  1  0.68149454  0.74821249  0.43369402  1
  Ni  Ni100  1  0.43687914  0.25222052  0.68602949  1
  Ni  Ni101  1  0.43682453  0.25212494  0.31397057  1
  Ni  Ni102  1  0.43690657  0.74791489  0.68590325  1
  Ni  Ni103  1  0.43674914  0.74772801  0.31399352  1
  Ni  Ni104  1  0.56304962  0.25212629  0.31400202  1
  Ni  Ni105  1  0.56307675  0.25203877  0.68591832  1
  Ni  Ni106  1  0.56333715  0.74819219  0.68511147  1
  Ni  Ni107  1  0.56298435  0.74786334  0.31406670  1
  Ni  Ni108  1  0.44113565  0.50004405  0.18952917  1
  Ni  Ni109  1  0.44173423  0.50026526  0.81026136  1
  Ni  Ni110  1  0.55889401  0.50005893  0.18955720  1
  Ni  Ni111  1  0.55949171  0.50038736  0.80996335  1
  H  H112  1  0.77878140  0.72202932  0.59789965  1
  Pt  Pt113  1  0.49981402  0.49974181  0.50000462  1
  Pt  Pt114  1  0.43770034  0.56354000  0.49999810  1
  Pt  Pt115  1  0.56208185  0.56338682  0.49993931  1
  Pt  Pt116  1  0.43757226  0.43614968  0.50001238  1
  Pt  Pt117  1  0.56218571  0.43606228  0.49998732  1
  Pt  Pt118  1  0.49999479  0.56381196  0.56637540  1
  Pt  Pt119  1  0.49992219  0.43582274  0.56644829  1
  Pt  Pt120  1  0.49986125  0.56385831  0.43356569  1
  Pt  Pt121  1  0.49993500  0.43592054  0.43360805  1
  Pt  Pt122  1  0.62563214  0.49969661  0.49997950  1
  Pt  Pt123  1  0.37423181  0.49988416  0.50003075  1
  Pt  Pt124  1  0.50003646  0.49993390  0.62823813  1
  Pt  Pt125  1  0.49995048  0.49991079  0.37175285  1
  Pt  Pt126  1  0.49984139  0.37212031  0.49999688  1
  Pt  Pt127  1  0.49994725  0.62769748  0.49997330  1
  Pt  Pt128  1  0.62387685  0.56348252  0.56526882  1
  Pt  Pt129  1  0.37565165  0.56390832  0.56551364  1
  Pt  Pt130  1  0.37557334  0.43589073  0.56556260  1
  Pt  Pt131  1  0.62434674  0.43575555  0.56539364  1
  Pt  Pt132  1  0.62430234  0.56383835  0.43469933  1
  Pt  Pt133  1  0.37559028  0.56389849  0.43450192  1
  Pt  Pt134  1  0.37551234  0.43592167  0.43447783  1
  Pt  Pt135  1  0.62433025  0.43582660  0.43453452  1
  Pt  Pt136  1  0.37684252  0.49995310  0.62741020  1
  Pt  Pt137  1  0.62362663  0.49986716  0.62704994  1
  Pt  Pt138  1  0.62313490  0.49992727  0.37272195  1
  Pt  Pt139  1  0.37675516  0.49994649  0.37261943  1
  Pt  Pt140  1  0.37540265  0.37142441  0.49998386  1
  Pt  Pt141  1  0.62448162  0.37137761  0.49995401  1
  Pt  Pt142  1  0.37548466  0.62836179  0.49997714  1
  Pt  Pt143  1  0.62426330  0.62838372  0.50029500  1
  Pt  Pt144  1  0.50004578  0.37215621  0.62838236  1
  Pt  Pt145  1  0.50011752  0.62782490  0.62809183  1
  Pt  Pt146  1  0.49997106  0.37225293  0.37163462  1
  Pt  Pt147  1  0.49990863  0.62766964  0.37166302  1
  Pt  Pt148  1  0.31223433  0.56552793  0.50002789  1
  Pt  Pt149  1  0.31216694  0.43432189  0.50002217  1
  Pt  Pt150  1  0.68761644  0.56551065  0.50040553  1
  Pt  Pt151  1  0.68779232  0.43425716  0.49998198  1
  Pt  Pt152  1  0.50047634  0.56439097  0.69051039  1
  Pt  Pt153  1  0.50017070  0.43572178  0.69077330  1
  Pt  Pt154  1  0.50004223  0.56424803  0.30923331  1
  Pt  Pt155  1  0.49996980  0.43574814  0.30912741  1
  Pt  Pt156  1  0.43773464  0.69224725  0.49992039  1
  Pt  Pt157  1  0.56197440  0.69247301  0.49989394  1
  Pt  Pt158  1  0.43772081  0.30760860  0.49996770  1
  Pt  Pt159  1  0.56208521  0.30754964  0.49998554  1
  Pt  Pt160  1  0.49979493  0.69228531  0.56583708  1
  Pt  Pt161  1  0.49981140  0.69218075  0.43393825  1
  Pt  Pt162  1  0.49993499  0.30769356  0.56595380  1
  Pt  Pt163  1  0.49991266  0.30773468  0.43397137  1
  Pt  Pt164  1  0.37758827  0.37291234  0.62824519  1
  Pt  Pt165  1  0.62244496  0.37272861  0.62806239  1
  Pt  Pt166  1  0.37763338  0.62701867  0.62811191  1
  Pt  Pt167  1  0.62295141  0.62749293  0.62696390  1
  Pt  Pt168  1  0.62229858  0.37283246  0.37188398  1
  Pt  Pt169  1  0.37754765  0.37289442  0.37184238  1
  Pt  Pt170  1  0.37752508  0.62699769  0.37185582  1
  Pt  Pt171  1  0.62227349  0.62692371  0.37207641  1
  Pt  Pt172  1  0.62233180  0.56302834  0.68851493  1
  Pt  Pt173  1  0.37831075  0.56265848  0.68945679  1
  Pt  Pt174  1  0.37831594  0.43734322  0.68958326  1
  Pt  Pt175  1  0.62203833  0.43727577  0.68917722  1
  Pt  Pt176  1  0.37809798  0.56264614  0.31051565  1
  Pt  Pt177  1  0.62172117  0.56265509  0.31067440  1
  Pt  Pt178  1  0.37812947  0.43730765  0.31049619  1
  Pt  Pt179  1  0.62177055  0.43724205  0.31062427  1
  Pt  Pt180  1  0.37712316  0.68980703  0.56486698  1
  Pt  Pt181  1  0.62302126  0.69057689  0.56441588  1
  Pt  Pt182  1  0.37704833  0.68977617  0.43507318  1
  Pt  Pt183  1  0.62251293  0.68991161  0.43502944  1
  Pt  Pt184  1  0.62276161  0.30999256  0.56484524  1
  Pt  Pt185  1  0.37714056  0.31014699  0.56493022  1
  Pt  Pt186  1  0.62274412  0.31000511  0.43507138  1
  Pt  Pt187  1  0.37707079  0.31007679  0.43503463  1
  Pt  Pt188  1  0.25551274  0.49994774  0.49999451  1
  Pt  Pt189  1  0.74453411  0.49997685  0.49990610  1
  Pt  Pt190  1  0.50045789  0.50016932  0.75084936  1
  Pt  Pt191  1  0.50003291  0.50011084  0.24885923  1
  Pt  Pt192  1  0.49989282  0.24709385  0.49987689  1
  Pt  Pt193  1  0.49973952  0.75295446  0.49984393  1
  Pt  Pt194  1  0.24934104  0.56767358  0.56820853  1
  Pt  Pt195  1  0.75117532  0.56742330  0.56806333  1
  Pt  Pt196  1  0.24929200  0.43218026  0.56822619  1
  Pt  Pt197  1  0.75081519  0.43182667  0.56806157  1
  Pt  Pt198  1  0.24927109  0.56768046  0.43181145  1
  Pt  Pt199  1  0.75030913  0.56754194  0.43209751  1
  Pt  Pt200  1  0.75068019  0.43211565  0.43177055  1
  Pt  Pt201  1  0.24921460  0.43217572  0.43175391  1
  Pt  Pt202  1  0.30680489  0.69805057  0.49999266  1
  Pt  Pt203  1  0.69197239  0.69694851  0.50004953  1
  Pt  Pt204  1  0.30669573  0.30176781  0.49996696  1
  Pt  Pt205  1  0.69309374  0.30170943  0.49991358  1
  Pt  Pt206  1  0.50017683  0.69387439  0.69309844  1
  Pt  Pt207  1  0.49995478  0.69356654  0.30654165  1
  Pt  Pt208  1  0.50005892  0.30632307  0.69344162  1
  Pt  Pt209  1  0.49992835  0.30635297  0.30653614  1
  Pt  Pt210  1  0.43374974  0.56838009  0.76101809  1
  Pt  Pt211  1  0.43331163  0.56820958  0.23876591  1
  Pt  Pt212  1  0.56751034  0.56860809  0.76075195  1
  Pt  Pt213  1  0.56678726  0.56833222  0.23856401  1
  Pt  Pt214  1  0.43353286  0.43185952  0.76146031  1
  Pt  Pt215  1  0.43329355  0.43183595  0.23869602  1
  Pt  Pt216  1  0.56710163  0.43207302  0.76091393  1
  Pt  Pt217  1  0.56672885  0.43179862  0.23866057  1
  Pt  Pt218  1  0.25169492  0.49995439  0.62774487  1
  Pt  Pt219  1  0.74826393  0.49957706  0.62732804  1
  Pt  Pt220  1  0.25165858  0.49997185  0.37230243  1
  Pt  Pt221  1  0.74832888  0.49996493  0.37237638  1
  Pt  Pt222  1  0.24742218  0.63049292  0.50000569  1
  Pt  Pt223  1  0.24733944  0.36934872  0.49997576  1
  Pt  Pt224  1  0.75256864  0.36914907  0.49991469  1
  Pt  Pt225  1  0.75218199  0.63063262  0.50099116  1
  Pt  Pt226  1  0.62622856  0.50038238  0.75695770  1
  Pt  Pt227  1  0.37470240  0.50018353  0.75772237  1
  Pt  Pt228  1  0.37437387  0.50002437  0.24233282  1
  Pt  Pt229  1  0.62555081  0.50007128  0.24250994  1
  Pt  Pt230  1  0.37261967  0.24202092  0.50000056  1
  Pt  Pt231  1  0.62721236  0.24184454  0.49992584  1
  Pt  Pt232  1  0.37261387  0.75793004  0.49994654  1
  Pt  Pt233  1  0.62715169  0.75842745  0.49975295  1
  Pt  Pt234  1  0.50028444  0.37110810  0.75787016  1
  Pt  Pt235  1  0.50061193  0.62923740  0.75729097  1
  Pt  Pt236  1  0.50000772  0.37102112  0.24206698  1
  Pt  Pt237  1  0.50002121  0.62902249  0.24206838  1
  Pt  Pt238  1  0.49987436  0.24372929  0.62989948  1
  Pt  Pt239  1  0.49979616  0.75643560  0.62958306  1
  Pt  Pt240  1  0.49990305  0.24373951  0.37000736  1
  Pt  Pt241  1  0.49978437  0.75617909  0.36995784  1
  Pt  Pt242  1  0.62727922  0.69268533  0.68983377  1
  Pt  Pt243  1  0.37317614  0.69212429  0.69109538  1
  Pt  Pt244  1  0.62679039  0.69204689  0.30904312  1
  Pt  Pt245  1  0.37298773  0.69206454  0.30883899  1
  Pt  Pt246  1  0.37309812  0.30793681  0.69126350  1
  Pt  Pt247  1  0.62689381  0.30771268  0.69107001  1
  Pt  Pt248  1  0.62687781  0.30782905  0.30882572  1
  Pt  Pt249  1  0.37306685  0.30792774  0.30878230  1
  Pt  Pt250  1  0.25843586  0.37116410  0.62984941  1
  Pt  Pt251  1  0.25850441  0.62881844  0.62971649  1
  Pt  Pt252  1  0.74158338  0.37074626  0.62961830  1
  Pt  Pt253  1  0.74221793  0.62995738  0.62822136  1
  Pt  Pt254  1  0.25838632  0.62881824  0.37029229  1
  Pt  Pt255  1  0.25836746  0.37111736  0.37018510  1
  Pt  Pt256  1  0.74149217  0.37101874  0.37030050  1
  Pt  Pt257  1  0.74146391  0.62890424  0.37065129  1
  Pt  Pt258  1  0.37279649  0.37026197  0.75236387  1
  Pt  Pt259  1  0.62745862  0.37007218  0.75213686  1
  Pt  Pt260  1  0.62806140  0.63035719  0.75092696  1
  Pt  Pt261  1  0.37283945  0.62985622  0.75218783  1
  Pt  Pt262  1  0.37264309  0.37017584  0.24763360  1
  Pt  Pt263  1  0.62735170  0.37008495  0.24776545  1
  Pt  Pt264  1  0.62739115  0.62989042  0.24784640  1
  Pt  Pt265  1  0.37262122  0.62983477  0.24772109  1
  Pt  Pt266  1  0.37633752  0.24846312  0.62771839  1
  Pt  Pt267  1  0.62357824  0.24825384  0.62751698  1
  Pt  Pt268  1  0.37629263  0.75159388  0.62757407  1
  Pt  Pt269  1  0.62377494  0.75249510  0.62664123  1
  Pt  Pt270  1  0.37619923  0.24840046  0.37225559  1
  Pt  Pt271  1  0.62361508  0.24836504  0.37231584  1
  Pt  Pt272  1  0.62356560  0.75178519  0.37229657  1
  Pt  Pt273  1  0.37617758  0.75153497  0.37233596  1
  Pt  Pt274  1  0.19180253  0.56012980  0.50002970  1
  Pt  Pt275  1  0.19181740  0.43979481  0.49999958  1
  Pt  Pt276  1  0.80838416  0.56017836  0.49985047  1
  Pt  Pt277  1  0.80808502  0.43954379  0.49985748  1
  Pt  Pt278  1  0.25654243  0.56441811  0.68667405  1
  Pt  Pt279  1  0.74401014  0.56499334  0.68494672  1
  Pt  Pt280  1  0.25653547  0.43561277  0.68680965  1
  Pt  Pt281  1  0.74361880  0.43529640  0.68649222  1
  Pt  Pt282  1  0.25644425  0.56439875  0.31332227  1
  Pt  Pt283  1  0.74354410  0.56456672  0.31368144  1
  Pt  Pt284  1  0.74343466  0.43556341  0.31346901  1
  Pt  Pt285  1  0.25642666  0.43562450  0.31327924  1
  Pt  Pt286  1  0.25545875  0.68887868  0.56930019  1
  Pt  Pt287  1  0.74635483  0.69231334  0.56915690  1
  Pt  Pt288  1  0.25538067  0.68887599  0.43072882  1
  Pt  Pt289  1  0.74421989  0.68880511  0.43130545  1
  Pt  Pt290  1  0.25540081  0.31109944  0.56935862  1
  Pt  Pt291  1  0.74452260  0.31067124  0.56918463  1
  Pt  Pt292  1  0.74454532  0.31084561  0.43062548  1
  Pt  Pt293  1  0.25536669  0.31106217  0.43063335  1
  Pt  Pt294  1  0.31493497  0.56460732  0.75166740  1
  Pt  Pt295  1  0.31476391  0.56464286  0.24827338  1
  Pt  Pt296  1  0.31500001  0.43560358  0.75175144  1
  Pt  Pt297  1  0.31479435  0.43541406  0.24825655  1
  Pt  Pt298  1  0.68589802  0.56511416  0.75023735  1
  Pt  Pt299  1  0.68526457  0.56457350  0.24861061  1
  Pt  Pt300  1  0.68529675  0.43536278  0.75140753  1
  Pt  Pt301  1  0.68511602  0.43540504  0.24843286  1
  Pt  Pt302  1  0.43578187  0.68985086  0.75295435  1
  Pt  Pt303  1  0.43545841  0.68989334  0.24677211  1
  Pt  Pt304  1  0.56510731  0.69025164  0.75224438  1
  Pt  Pt305  1  0.56450147  0.68998468  0.24687498  1
  Pt  Pt306  1  0.43567732  0.31025047  0.75324528  1
  Pt  Pt307  1  0.43550036  0.31011851  0.24676388  1
  Pt  Pt308  1  0.56453666  0.31000250  0.75312389  1
  Pt  Pt309  1  0.56443653  0.31005425  0.24682290  1
  Pt  Pt310  1  0.43772407  0.81396427  0.49972998  1
  Pt  Pt311  1  0.56167328  0.81403451  0.49964807  1
  Pt  Pt312  1  0.43787325  0.18613958  0.49990048  1
  Pt  Pt313  1  0.56189730  0.18603982  0.49990307  1
  Pt  Pt314  1  0.50072052  0.56113777  0.81706929  1
  Pt  Pt315  1  0.50057190  0.43955015  0.81744385  1
  Pt  Pt316  1  0.49999043  0.56078771  0.18229893  1
  Pt  Pt317  1  0.49998056  0.43936660  0.18231212  1
  Pt  Pt318  1  0.49966925  0.81310934  0.56428303  1
  Pt  Pt319  1  0.49974805  0.81287776  0.43514039  1
  Pt  Pt320  1  0.49985976  0.18721988  0.56451250  1
  Pt  Pt321  1  0.49985429  0.18715092  0.43530918  1
