data_con1.2_46_re
_audit_creation_date              2024-05-06
_audit_creation_method            'Materials Studio'
_symmetry_space_group_name_H-M    'P1'
_symmetry_Int_Tables_number       1
_symmetry_cell_setting            triclinic
loop_
_symmetry_equiv_pos_as_xyz
  x,y,z
_cell_length_a                    30.0000
_cell_length_b                    30.0000
_cell_length_c                    30.0000
_cell_angle_alpha                 90.0000
_cell_angle_beta                  90.0000
_cell_angle_gamma                 90.0000
loop_
_atom_site_label
_atom_site_type_symbol
_atom_site_fract_x
_atom_site_fract_y
_atom_site_fract_z
_atom_site_U_iso_or_equiv
_atom_site_adp_type
_atom_site_occupancy
Ni1    Ni    0.43772   0.50000   0.43398   0.00000  Uiso   1.00
Ni2    Ni    0.43772   0.50000   0.56602   0.00000  Uiso   1.00
Ni3    Ni    0.56228   0.50000   0.56602   0.00000  Uiso   1.00
Ni4    Ni    0.56228   0.50000   0.43398   0.00000  Uiso   1.00
Ni5    Ni    0.43772   0.56457   0.62814   0.00000  Uiso   1.00
Ni6    Ni    0.56228   0.56457   0.62814   0.00000  Uiso   1.00
Ni7    Ni    0.43772   0.43543   0.62814   0.00000  Uiso   1.00
Ni8    Ni    0.43772   0.56457   0.37186   0.00000  Uiso   1.00
Ni9    Ni    0.56228   0.43543   0.62814   0.00000  Uiso   1.00
Ni10   Ni    0.56228   0.56457   0.37186   0.00000  Uiso   1.00
Ni11   Ni    0.43772   0.43543   0.37186   0.00000  Uiso   1.00
Ni12   Ni    0.56228   0.43543   0.37186   0.00000  Uiso   1.00
Ni13   Ni    0.43772   0.37087   0.56602   0.00000  Uiso   1.00
Ni14   Ni    0.43772   0.37087   0.43398   0.00000  Uiso   1.00
Ni15   Ni    0.43772   0.62913   0.56602   0.00000  Uiso   1.00
Ni16   Ni    0.43772   0.62913   0.43398   0.00000  Uiso   1.00
Ni17   Ni    0.56228   0.37087   0.56602   0.00000  Uiso   1.00
Ni18   Ni    0.56228   0.37087   0.43398   0.00000  Uiso   1.00
Ni19   Ni    0.56228   0.62913   0.56602   0.00000  Uiso   1.00
Ni20   Ni    0.56228   0.62913   0.43398   0.00000  Uiso   1.00
Ni21   Ni    0.31316   0.50000   0.43398   0.00000  Uiso   1.00
Ni22   Ni    0.31316   0.50000   0.56602   0.00000  Uiso   1.00
Ni23   Ni    0.68684   0.50000   0.56602   0.00000  Uiso   1.00
Ni24   Ni    0.68684   0.50000   0.43398   0.00000  Uiso   1.00
Ni25   Ni    0.43772   0.50000   0.30974   0.00000  Uiso   1.00
Ni26   Ni    0.43772   0.50000   0.69026   0.00000  Uiso   1.00
Ni27   Ni    0.56228   0.50000   0.69026   0.00000  Uiso   1.00
Ni28   Ni    0.56228   0.50000   0.30974   0.00000  Uiso   1.00
Ni29   Ni    0.31316   0.56457   0.62814   0.00000  Uiso   1.00
Ni30   Ni    0.31316   0.43543   0.62814   0.00000  Uiso   1.00
Ni31   Ni    0.31316   0.56457   0.37186   0.00000  Uiso   1.00
Ni32   Ni    0.68684   0.56457   0.62814   0.00000  Uiso   1.00
Ni33   Ni    0.31316   0.43543   0.37186   0.00000  Uiso   1.00
Ni34   Ni    0.68684   0.43543   0.62814   0.00000  Uiso   1.00
Ni35   Ni    0.68684   0.56457   0.37186   0.00000  Uiso   1.00
Ni36   Ni    0.68684   0.43543   0.37186   0.00000  Uiso   1.00
Ni37   Ni    0.31316   0.37087   0.43398   0.00000  Uiso   1.00
Ni38   Ni    0.31316   0.37087   0.56602   0.00000  Uiso   1.00
Ni39   Ni    0.31316   0.62913   0.56602   0.00000  Uiso   1.00
Ni40   Ni    0.31316   0.62913   0.43398   0.00000  Uiso   1.00
Ni41   Ni    0.68684   0.37087   0.56602   0.00000  Uiso   1.00
Ni42   Ni    0.68684   0.62913   0.56602   0.00000  Uiso   1.00
Ni43   Ni    0.68684   0.37087   0.43398   0.00000  Uiso   1.00
Ni44   Ni    0.68684   0.62913   0.43398   0.00000  Uiso   1.00
Ni45   Ni    0.43772   0.37087   0.30974   0.00000  Uiso   1.00
Ni46   Ni    0.43772   0.37087   0.69026   0.00000  Uiso   1.00
Ni47   Ni    0.43772   0.62913   0.69026   0.00000  Uiso   1.00
Ni48   Ni    0.43772   0.62913   0.30974   0.00000  Uiso   1.00
Ni49   Ni    0.56228   0.37087   0.30974   0.00000  Uiso   1.00
Ni50   Ni    0.56228   0.37087   0.69026   0.00000  Uiso   1.00
Ni51   Ni    0.56228   0.62913   0.69026   0.00000  Uiso   1.00
Ni52   Ni    0.56228   0.62913   0.30974   0.00000  Uiso   1.00
Ni53   Ni    0.43772   0.69370   0.62814   0.00000  Uiso   1.00
Ni54   Ni    0.56228   0.69370   0.62814   0.00000  Uiso   1.00
Ni55   Ni    0.43772   0.69370   0.37186   0.00000  Uiso   1.00
Ni56   Ni    0.56228   0.69370   0.37186   0.00000  Uiso   1.00
Ni57   Ni    0.43772   0.30630   0.62814   0.00000  Uiso   1.00
Ni58   Ni    0.56228   0.30630   0.62814   0.00000  Uiso   1.00
Ni59   Ni    0.43772   0.30630   0.37186   0.00000  Uiso   1.00
Ni60   Ni    0.56228   0.30630   0.37186   0.00000  Uiso   1.00
Ni61   Ni    0.31316   0.50000   0.30974   0.00000  Uiso   1.00
Ni62   Ni    0.31316   0.50000   0.69026   0.00000  Uiso   1.00
Ni63   Ni    0.68684   0.50000   0.69026   0.00000  Uiso   1.00
Ni64   Ni    0.68684   0.50000   0.30974   0.00000  Uiso   1.00
Ni65   Ni    0.43772   0.24174   0.43398   0.00000  Uiso   1.00
Ni66   Ni    0.43772   0.24174   0.56602   0.00000  Uiso   1.00
Ni67   Ni    0.43772   0.75826   0.56602   0.00000  Uiso   1.00
Ni68   Ni    0.43772   0.75826   0.43398   0.00000  Uiso   1.00
Ni69   Ni    0.56228   0.24174   0.56602   0.00000  Uiso   1.00
Ni70   Ni    0.56228   0.24174   0.43398   0.00000  Uiso   1.00
Ni71   Ni    0.56228   0.75826   0.56602   0.00000  Uiso   1.00
Ni72   Ni    0.56228   0.75826   0.43398   0.00000  Uiso   1.00
Ni73   Ni    0.31316   0.62913   0.30974   0.00000  Uiso   1.00
Ni74   Ni    0.31316   0.37087   0.30974   0.00000  Uiso   1.00
Ni75   Ni    0.31316   0.62913   0.69026   0.00000  Uiso   1.00
Ni76   Ni    0.31316   0.37087   0.69026   0.00000  Uiso   1.00
Ni77   Ni    0.68684   0.37087   0.69026   0.00000  Uiso   1.00
Ni78   Ni    0.68684   0.37087   0.30974   0.00000  Uiso   1.00
Ni79   Ni    0.68684   0.62913   0.69026   0.00000  Uiso   1.00
Ni80   Ni    0.68684   0.62913   0.30974   0.00000  Uiso   1.00
Ni81   Ni    0.31316   0.69370   0.62814   0.00000  Uiso   1.00
Ni82   Ni    0.31316   0.69370   0.37186   0.00000  Uiso   1.00
Ni83   Ni    0.68684   0.69370   0.62814   0.00000  Uiso   1.00
Ni84   Ni    0.31316   0.30630   0.62814   0.00000  Uiso   1.00
Ni85   Ni    0.68684   0.69370   0.37186   0.00000  Uiso   1.00
Ni86   Ni    0.31316   0.30630   0.37186   0.00000  Uiso   1.00
Ni87   Ni    0.68684   0.30630   0.62814   0.00000  Uiso   1.00
Ni88   Ni    0.68684   0.30630   0.37186   0.00000  Uiso   1.00
Ni89   Ni    0.18860   0.50000   0.56602   0.00000  Uiso   1.00
Ni90   Ni    0.18860   0.50000   0.43398   0.00000  Uiso   1.00
Ni91   Ni    0.81140   0.50000   0.56602   0.00000  Uiso   1.00
Ni92   Ni    0.81140   0.50000   0.43398   0.00000  Uiso   1.00
Ni93   Ni    0.31316   0.24174   0.43398   0.00000  Uiso   1.00
Ni94   Ni    0.31316   0.24174   0.56602   0.00000  Uiso   1.00
Ni95   Ni    0.31316   0.75826   0.56602   0.00000  Uiso   1.00
Ni96   Ni    0.31316   0.75826   0.43398   0.00000  Uiso   1.00
Ni97   Ni    0.68684   0.24174   0.43398   0.00000  Uiso   1.00
Ni98   Ni    0.68684   0.24174   0.56602   0.00000  Uiso   1.00
Ni99   Ni    0.68684   0.75826   0.56602   0.00000  Uiso   1.00
Ni100  Ni    0.68684   0.75826   0.43398   0.00000  Uiso   1.00
Ni101  Ni    0.43772   0.24174   0.69026   0.00000  Uiso   1.00
Ni102  Ni    0.43772   0.24174   0.30974   0.00000  Uiso   1.00
Ni103  Ni    0.43772   0.75826   0.69026   0.00000  Uiso   1.00
Ni104  Ni    0.43772   0.75826   0.30974   0.00000  Uiso   1.00
Ni105  Ni    0.56228   0.24174   0.30974   0.00000  Uiso   1.00
Ni106  Ni    0.56228   0.24174   0.69026   0.00000  Uiso   1.00
Ni107  Ni    0.56228   0.75826   0.69026   0.00000  Uiso   1.00
Ni108  Ni    0.56228   0.75826   0.30974   0.00000  Uiso   1.00
Ni109  Ni    0.43772   0.50000   0.17771   0.00000  Uiso   1.00
Ni110  Ni    0.43772   0.50000   0.82229   0.00000  Uiso   1.00
Ni111  Ni    0.56228   0.50000   0.17771   0.00000  Uiso   1.00
Ni112  Ni    0.56228   0.50000   0.82229   0.00000  Uiso   1.00
Pt1    Pt    0.50000   0.50000   0.50000   0.00000  Uiso   1.00
Pt2    Pt    0.43772   0.56457   0.50000   0.00000  Uiso   1.00
Pt3    Pt    0.56228   0.56457   0.50000   0.00000  Uiso   1.00
Pt4    Pt    0.43772   0.43543   0.50000   0.00000  Uiso   1.00
Pt5    Pt    0.56228   0.43543   0.50000   0.00000  Uiso   1.00
Pt6    Pt    0.50000   0.56457   0.56628   0.00000  Uiso   1.00
Pt7    Pt    0.50000   0.43543   0.56628   0.00000  Uiso   1.00
Pt8    Pt    0.50000   0.56457   0.43372   0.00000  Uiso   1.00
Pt9    Pt    0.50000   0.43543   0.43372   0.00000  Uiso   1.00
Pt10   Pt    0.62456   0.50000   0.50000   0.00000  Uiso   1.00
Pt11   Pt    0.37544   0.50000   0.50000   0.00000  Uiso   1.00
Pt12   Pt    0.50000   0.50000   0.62814   0.00000  Uiso   1.00
Pt13   Pt    0.50000   0.50000   0.37186   0.00000  Uiso   1.00
Pt14   Pt    0.50000   0.37087   0.50000   0.00000  Uiso   1.00
Pt15   Pt    0.50000   0.62913   0.50000   0.00000  Uiso   1.00
Pt16   Pt    0.62456   0.56457   0.56628   0.00000  Uiso   1.00
Pt17   Pt    0.37544   0.56457   0.56628   0.00000  Uiso   1.00
Pt18   Pt    0.37544   0.43543   0.56628   0.00000  Uiso   1.00
Pt19   Pt    0.62456   0.43543   0.56628   0.00000  Uiso   1.00
Pt20   Pt    0.62456   0.56457   0.43372   0.00000  Uiso   1.00
Pt21   Pt    0.37544   0.56457   0.43372   0.00000  Uiso   1.00
Pt22   Pt    0.37544   0.43543   0.43372   0.00000  Uiso   1.00
Pt23   Pt    0.62456   0.43543   0.43372   0.00000  Uiso   1.00
Pt24   Pt    0.37544   0.50000   0.62814   0.00000  Uiso   1.00
Pt25   Pt    0.62456   0.50000   0.62814   0.00000  Uiso   1.00
Pt26   Pt    0.62456   0.50000   0.37186   0.00000  Uiso   1.00
Pt27   Pt    0.37544   0.50000   0.37186   0.00000  Uiso   1.00
Pt28   Pt    0.37544   0.37087   0.50000   0.00000  Uiso   1.00
Pt29   Pt    0.62456   0.37087   0.50000   0.00000  Uiso   1.00
Pt30   Pt    0.37544   0.62913   0.50000   0.00000  Uiso   1.00
Pt31   Pt    0.62456   0.62913   0.50000   0.00000  Uiso   1.00
Pt32   Pt    0.50000   0.37087   0.62814   0.00000  Uiso   1.00
Pt33   Pt    0.50000   0.62913   0.62814   0.00000  Uiso   1.00
Pt34   Pt    0.50000   0.37087   0.37186   0.00000  Uiso   1.00
Pt35   Pt    0.50000   0.62913   0.37186   0.00000  Uiso   1.00
Pt36   Pt    0.31316   0.56457   0.50000   0.00000  Uiso   1.00
Pt37   Pt    0.31316   0.43543   0.50000   0.00000  Uiso   1.00
Pt38   Pt    0.68684   0.56457   0.50000   0.00000  Uiso   1.00
Pt39   Pt    0.68684   0.43543   0.50000   0.00000  Uiso   1.00
Pt40   Pt    0.50000   0.56457   0.69000   0.00000  Uiso   1.00
Pt41   Pt    0.50000   0.43543   0.69000   0.00000  Uiso   1.00
Pt42   Pt    0.50000   0.56457   0.31000   0.00000  Uiso   1.00
Pt43   Pt    0.50000   0.43543   0.31000   0.00000  Uiso   1.00
Pt44   Pt    0.43772   0.69370   0.50000   0.00000  Uiso   1.00
Pt45   Pt    0.56228   0.69370   0.50000   0.00000  Uiso   1.00
Pt46   Pt    0.43772   0.30630   0.50000   0.00000  Uiso   1.00
Pt47   Pt    0.56228   0.30630   0.50000   0.00000  Uiso   1.00
Pt48   Pt    0.50000   0.69370   0.56628   0.00000  Uiso   1.00
Pt49   Pt    0.50000   0.69370   0.43372   0.00000  Uiso   1.00
Pt50   Pt    0.50000   0.30630   0.56628   0.00000  Uiso   1.00
Pt51   Pt    0.50000   0.30630   0.43372   0.00000  Uiso   1.00
Pt52   Pt    0.37544   0.37087   0.62814   0.00000  Uiso   1.00
Pt53   Pt    0.62456   0.37087   0.62814   0.00000  Uiso   1.00
Pt54   Pt    0.37544   0.62913   0.62814   0.00000  Uiso   1.00
Pt55   Pt    0.62456   0.62913   0.62814   0.00000  Uiso   1.00
Pt56   Pt    0.62456   0.37087   0.37186   0.00000  Uiso   1.00
Pt57   Pt    0.37544   0.37087   0.37186   0.00000  Uiso   1.00
Pt58   Pt    0.37544   0.62913   0.37186   0.00000  Uiso   1.00
Pt59   Pt    0.62456   0.62913   0.37186   0.00000  Uiso   1.00
Pt60   Pt    0.62456   0.56457   0.69000   0.00000  Uiso   1.00
Pt61   Pt    0.37544   0.56457   0.69000   0.00000  Uiso   1.00
Pt62   Pt    0.37544   0.43543   0.69000   0.00000  Uiso   1.00
Pt63   Pt    0.62456   0.43543   0.69000   0.00000  Uiso   1.00
Pt64   Pt    0.37544   0.56457   0.31000   0.00000  Uiso   1.00
Pt65   Pt    0.62456   0.56457   0.31000   0.00000  Uiso   1.00
Pt66   Pt    0.37544   0.43543   0.31000   0.00000  Uiso   1.00
Pt67   Pt    0.62456   0.43543   0.31000   0.00000  Uiso   1.00
Pt68   Pt    0.37544   0.69370   0.56628   0.00000  Uiso   1.00
Pt69   Pt    0.62456   0.69370   0.56628   0.00000  Uiso   1.00
Pt70   Pt    0.37544   0.69370   0.43372   0.00000  Uiso   1.00
Pt71   Pt    0.62456   0.69370   0.43372   0.00000  Uiso   1.00
Pt72   Pt    0.62456   0.30630   0.56628   0.00000  Uiso   1.00
Pt73   Pt    0.37544   0.30630   0.56628   0.00000  Uiso   1.00
Pt74   Pt    0.62456   0.30630   0.43372   0.00000  Uiso   1.00
Pt75   Pt    0.37544   0.30630   0.43372   0.00000  Uiso   1.00
Pt76   Pt    0.25088   0.50000   0.50000   0.00000  Uiso   1.00
Pt77   Pt    0.74912   0.50000   0.50000   0.00000  Uiso   1.00
Pt78   Pt    0.50000   0.50000   0.75628   0.00000  Uiso   1.00
Pt79   Pt    0.50000   0.50000   0.24372   0.00000  Uiso   1.00
Pt80   Pt    0.50000   0.24174   0.50000   0.00000  Uiso   1.00
Pt81   Pt    0.50000   0.75826   0.50000   0.00000  Uiso   1.00
Pt82   Pt    0.25088   0.56457   0.56628   0.00000  Uiso   1.00
Pt83   Pt    0.74912   0.56457   0.56628   0.00000  Uiso   1.00
Pt84   Pt    0.25088   0.43543   0.56628   0.00000  Uiso   1.00
Pt85   Pt    0.74912   0.43543   0.56628   0.00000  Uiso   1.00
Pt86   Pt    0.25088   0.56457   0.43372   0.00000  Uiso   1.00
Pt87   Pt    0.74912   0.56457   0.43372   0.00000  Uiso   1.00
Pt88   Pt    0.74912   0.43543   0.43372   0.00000  Uiso   1.00
Pt89   Pt    0.25088   0.43543   0.43372   0.00000  Uiso   1.00
Pt90   Pt    0.31316   0.69370   0.50000   0.00000  Uiso   1.00
Pt91   Pt    0.68684   0.69370   0.50000   0.00000  Uiso   1.00
Pt92   Pt    0.31316   0.30630   0.50000   0.00000  Uiso   1.00
Pt93   Pt    0.68684   0.30630   0.50000   0.00000  Uiso   1.00
Pt94   Pt    0.50000   0.69370   0.69000   0.00000  Uiso   1.00
Pt95   Pt    0.50000   0.69370   0.31000   0.00000  Uiso   1.00
Pt96   Pt    0.50000   0.30630   0.69000   0.00000  Uiso   1.00
Pt97   Pt    0.50000   0.30630   0.31000   0.00000  Uiso   1.00
Pt98   Pt    0.43772   0.56457   0.75628   0.00000  Uiso   1.00
Pt99   Pt    0.43772   0.56457   0.24372   0.00000  Uiso   1.00
Pt100  Pt    0.56228   0.56457   0.75628   0.00000  Uiso   1.00
Pt101  Pt    0.56228   0.56457   0.24372   0.00000  Uiso   1.00
Pt102  Pt    0.43772   0.43543   0.75628   0.00000  Uiso   1.00
Pt103  Pt    0.43772   0.43543   0.24372   0.00000  Uiso   1.00
Pt104  Pt    0.56228   0.43543   0.75628   0.00000  Uiso   1.00
Pt105  Pt    0.56228   0.43543   0.24372   0.00000  Uiso   1.00
Pt106  Pt    0.25088   0.50000   0.62814   0.00000  Uiso   1.00
Pt107  Pt    0.74912   0.50000   0.62814   0.00000  Uiso   1.00
Pt108  Pt    0.25088   0.50000   0.37186   0.00000  Uiso   1.00
Pt109  Pt    0.74912   0.50000   0.37186   0.00000  Uiso   1.00
Pt110  Pt    0.25088   0.62913   0.50000   0.00000  Uiso   1.00
Pt111  Pt    0.25088   0.37087   0.50000   0.00000  Uiso   1.00
Pt112  Pt    0.74912   0.37087   0.50000   0.00000  Uiso   1.00
Pt113  Pt    0.74912   0.62913   0.50000   0.00000  Uiso   1.00
Pt114  Pt    0.62456   0.50000   0.75628   0.00000  Uiso   1.00
Pt115  Pt    0.37544   0.50000   0.75628   0.00000  Uiso   1.00
Pt116  Pt    0.37544   0.50000   0.24372   0.00000  Uiso   1.00
Pt117  Pt    0.62456   0.50000   0.24372   0.00000  Uiso   1.00
Pt118  Pt    0.37544   0.24174   0.50000   0.00000  Uiso   1.00
Pt119  Pt    0.62456   0.24174   0.50000   0.00000  Uiso   1.00
Pt120  Pt    0.37544   0.75826   0.50000   0.00000  Uiso   1.00
Pt121  Pt    0.62456   0.75826   0.50000   0.00000  Uiso   1.00
Pt122  Pt    0.50000   0.37087   0.75628   0.00000  Uiso   1.00
Pt123  Pt    0.50000   0.62913   0.75628   0.00000  Uiso   1.00
Pt124  Pt    0.50000   0.37087   0.24372   0.00000  Uiso   1.00
Pt125  Pt    0.50000   0.62913   0.24372   0.00000  Uiso   1.00
Pt126  Pt    0.50000   0.24174   0.62814   0.00000  Uiso   1.00
Pt127  Pt    0.50000   0.75826   0.62814   0.00000  Uiso   1.00
Pt128  Pt    0.50000   0.24174   0.37186   0.00000  Uiso   1.00
Pt129  Pt    0.50000   0.75826   0.37186   0.00000  Uiso   1.00
Pt130  Pt    0.62456   0.69370   0.69000   0.00000  Uiso   1.00
Pt131  Pt    0.37544   0.69370   0.69000   0.00000  Uiso   1.00
Pt132  Pt    0.62456   0.69370   0.31000   0.00000  Uiso   1.00
Pt133  Pt    0.37544   0.69370   0.31000   0.00000  Uiso   1.00
Pt134  Pt    0.37544   0.30630   0.69000   0.00000  Uiso   1.00
Pt135  Pt    0.62456   0.30630   0.69000   0.00000  Uiso   1.00
Pt136  Pt    0.62456   0.30630   0.31000   0.00000  Uiso   1.00
Pt137  Pt    0.37544   0.30630   0.31000   0.00000  Uiso   1.00
Pt138  Pt    0.25088   0.37087   0.62814   0.00000  Uiso   1.00
Pt139  Pt    0.25088   0.62913   0.62814   0.00000  Uiso   1.00
Pt140  Pt    0.74912   0.37087   0.62814   0.00000  Uiso   1.00
Pt141  Pt    0.74912   0.62913   0.62814   0.00000  Uiso   1.00
Pt142  Pt    0.25088   0.62913   0.37186   0.00000  Uiso   1.00
Pt143  Pt    0.25088   0.37087   0.37186   0.00000  Uiso   1.00
Pt144  Pt    0.74912   0.37087   0.37186   0.00000  Uiso   1.00
Pt145  Pt    0.74912   0.62913   0.37186   0.00000  Uiso   1.00
Pt146  Pt    0.37544   0.37087   0.75628   0.00000  Uiso   1.00
Pt147  Pt    0.62456   0.37087   0.75628   0.00000  Uiso   1.00
Pt148  Pt    0.62456   0.62913   0.75628   0.00000  Uiso   1.00
Pt149  Pt    0.37544   0.62913   0.75628   0.00000  Uiso   1.00
Pt150  Pt    0.37544   0.37087   0.24372   0.00000  Uiso   1.00
Pt151  Pt    0.62456   0.37087   0.24372   0.00000  Uiso   1.00
Pt152  Pt    0.62456   0.62913   0.24372   0.00000  Uiso   1.00
Pt153  Pt    0.37544   0.62913   0.24372   0.00000  Uiso   1.00
Pt154  Pt    0.37544   0.24174   0.62814   0.00000  Uiso   1.00
Pt155  Pt    0.62456   0.24174   0.62814   0.00000  Uiso   1.00
Pt156  Pt    0.37544   0.75826   0.62814   0.00000  Uiso   1.00
Pt157  Pt    0.62456   0.75826   0.62814   0.00000  Uiso   1.00
Pt158  Pt    0.37544   0.24174   0.37186   0.00000  Uiso   1.00
Pt159  Pt    0.62456   0.24174   0.37186   0.00000  Uiso   1.00
Pt160  Pt    0.62456   0.75826   0.37186   0.00000  Uiso   1.00
Pt161  Pt    0.37544   0.75826   0.37186   0.00000  Uiso   1.00
Pt162  Pt    0.18860   0.56457   0.50000   0.00000  Uiso   1.00
Pt163  Pt    0.18860   0.43543   0.50000   0.00000  Uiso   1.00
Pt164  Pt    0.81140   0.56457   0.50000   0.00000  Uiso   1.00
Pt165  Pt    0.81140   0.43543   0.50000   0.00000  Uiso   1.00
Pt166  Pt    0.25088   0.56457   0.69000   0.00000  Uiso   1.00
Pt167  Pt    0.74912   0.56457   0.69000   0.00000  Uiso   1.00
Pt168  Pt    0.25088   0.43543   0.69000   0.00000  Uiso   1.00
Pt169  Pt    0.74912   0.43543   0.69000   0.00000  Uiso   1.00
Pt170  Pt    0.25088   0.56457   0.31000   0.00000  Uiso   1.00
Pt171  Pt    0.74912   0.56457   0.31000   0.00000  Uiso   1.00
Pt172  Pt    0.74912   0.43543   0.31000   0.00000  Uiso   1.00
Pt173  Pt    0.25088   0.43543   0.31000   0.00000  Uiso   1.00
Pt174  Pt    0.25088   0.69370   0.56628   0.00000  Uiso   1.00
Pt175  Pt    0.74912   0.69370   0.56628   0.00000  Uiso   1.00
Pt176  Pt    0.25088   0.69370   0.43372   0.00000  Uiso   1.00
Pt177  Pt    0.74912   0.69370   0.43372   0.00000  Uiso   1.00
Pt178  Pt    0.25088   0.30630   0.56628   0.00000  Uiso   1.00
Pt179  Pt    0.74912   0.30630   0.56628   0.00000  Uiso   1.00
Pt180  Pt    0.74912   0.30630   0.43372   0.00000  Uiso   1.00
Pt181  Pt    0.25088   0.30630   0.43372   0.00000  Uiso   1.00
Pt182  Pt    0.31316   0.56457   0.75628   0.00000  Uiso   1.00
Pt183  Pt    0.31316   0.56457   0.24372   0.00000  Uiso   1.00
Pt184  Pt    0.31316   0.43543   0.75628   0.00000  Uiso   1.00
Pt185  Pt    0.31316   0.43543   0.24372   0.00000  Uiso   1.00
Pt186  Pt    0.68684   0.56457   0.75628   0.00000  Uiso   1.00
Pt187  Pt    0.68684   0.56457   0.24372   0.00000  Uiso   1.00
Pt188  Pt    0.68684   0.43543   0.75628   0.00000  Uiso   1.00
Pt189  Pt    0.68684   0.43543   0.24372   0.00000  Uiso   1.00
Pt190  Pt    0.43772   0.69370   0.75628   0.00000  Uiso   1.00
Pt191  Pt    0.43772   0.69370   0.24372   0.00000  Uiso   1.00
Pt192  Pt    0.56228   0.69370   0.75628   0.00000  Uiso   1.00
Pt193  Pt    0.56228   0.69370   0.24372   0.00000  Uiso   1.00
Pt194  Pt    0.43772   0.30630   0.75628   0.00000  Uiso   1.00
Pt195  Pt    0.43772   0.30630   0.24372   0.00000  Uiso   1.00
Pt196  Pt    0.56228   0.30630   0.75628   0.00000  Uiso   1.00
Pt197  Pt    0.56228   0.30630   0.24372   0.00000  Uiso   1.00
Pt198  Pt    0.43772   0.82283   0.50000   0.00000  Uiso   1.00
Pt199  Pt    0.56228   0.82283   0.50000   0.00000  Uiso   1.00
Pt200  Pt    0.43772   0.17717   0.50000   0.00000  Uiso   1.00
Pt201  Pt    0.56228   0.17717   0.50000   0.00000  Uiso   1.00
Pt202  Pt    0.50000   0.56457   0.82256   0.00000  Uiso   1.00
Pt203  Pt    0.50000   0.43543   0.82256   0.00000  Uiso   1.00
Pt204  Pt    0.50000   0.56457   0.17744   0.00000  Uiso   1.00
Pt205  Pt    0.50000   0.43543   0.17744   0.00000  Uiso   1.00
Pt206  Pt    0.50000   0.82283   0.56628   0.00000  Uiso   1.00
Pt207  Pt    0.50000   0.82283   0.43372   0.00000  Uiso   1.00
Pt208  Pt    0.50000   0.17717   0.56628   0.00000  Uiso   1.00
Pt209  Pt    0.50000   0.17717   0.43372   0.00000  Uiso   1.00
