# generated using pymatgen
data_Co74HPt247
_symmetry_space_group_name_H-M   'P 1'
_cell_length_a   30.00000000
_cell_length_b   30.00000000
_cell_length_c   30.00000000
_cell_angle_alpha   90.00000000
_cell_angle_beta   90.00000000
_cell_angle_gamma   90.00000000
_symmetry_Int_Tables_number   1
_chemical_formula_structural   Co74HPt247
_chemical_formula_sum   'Co74 H1 Pt247'
_cell_volume   27000.00000000
_cell_formula_units_Z   1
loop_
 _symmetry_equiv_pos_site_id
 _symmetry_equiv_pos_as_xyz
  1  'x, y, z'
loop_
 _atom_site_type_symbol
 _atom_site_label
 _atom_site_symmetry_multiplicity
 _atom_site_fract_x
 _atom_site_fract_y
 _atom_site_fract_z
 _atom_site_occupancy
  Co  Co0  1  0.50005236  0.50003930  0.37326011  1
  Co  Co1  1  0.50010568  0.49983267  0.62686460  1
  Co  Co2  1  0.56558532  0.43460925  0.37322089  1
  Co  Co3  1  0.56557314  0.56554665  0.37327443  1
  Co  Co4  1  0.43448720  0.43454101  0.37320562  1
  Co  Co5  1  0.56520846  0.43467600  0.62695435  1
  Co  Co6  1  0.43456607  0.56560587  0.37328169  1
  Co  Co7  1  0.56568638  0.56562846  0.62671599  1
  Co  Co8  1  0.43425817  0.43346908  0.62705997  1
  Co  Co9  1  0.43452661  0.56548435  0.62669425  1
  Co  Co10  1  0.63099669  0.50003619  0.37407678  1
  Co  Co11  1  0.50005147  0.63109960  0.37406516  1
  Co  Co12  1  0.50005018  0.36906136  0.37397993  1
  Co  Co13  1  0.36899140  0.50003224  0.37403154  1
  Co  Co14  1  0.63111729  0.50015607  0.62592620  1
  Co  Co15  1  0.49933987  0.36892257  0.62623244  1
  Co  Co16  1  0.36909956  0.49980262  0.62592537  1
  Co  Co17  1  0.50012528  0.63112838  0.62585024  1
  Co  Co18  1  0.62945375  0.62943138  0.37494318  1
  Co  Co19  1  0.62945635  0.37065165  0.37493439  1
  Co  Co20  1  0.37057810  0.37067814  0.37488985  1
  Co  Co21  1  0.37064276  0.62946232  0.37499027  1
  Co  Co22  1  0.62935322  0.37068178  0.62508760  1
  Co  Co23  1  0.62948009  0.62953169  0.62490753  1
  Co  Co24  1  0.37064334  0.36965940  0.62556994  1
  Co  Co25  1  0.37065230  0.62944054  0.62494977  1
  Co  Co26  1  0.69063171  0.43898340  0.37732647  1
  Co  Co27  1  0.56114800  0.30935607  0.37721265  1
  Co  Co28  1  0.69069407  0.56111423  0.37729956  1
  Co  Co29  1  0.43893028  0.30937014  0.37717973  1
  Co  Co30  1  0.56096137  0.30942435  0.62273926  1
  Co  Co31  1  0.69064916  0.43899961  0.62273119  1
  Co  Co32  1  0.43937288  0.30910429  0.62263477  1
  Co  Co33  1  0.69070861  0.56107739  0.62260247  1
  Co  Co34  1  0.56110154  0.69076392  0.37729816  1
  Co  Co35  1  0.30936477  0.43896304  0.37724211  1
  Co  Co36  1  0.30933573  0.56109307  0.37729437  1
  Co  Co37  1  0.43892498  0.69074862  0.37731186  1
  Co  Co38  1  0.56115290  0.69078792  0.62260148  1
  Co  Co39  1  0.30961169  0.43869815  0.62283943  1
  Co  Co40  1  0.30950521  0.56103298  0.62265430  1
  Co  Co41  1  0.43901796  0.69069197  0.62261624  1
  Co  Co42  1  0.75255321  0.50009775  0.37877884  1
  Co  Co43  1  0.50000732  0.24744448  0.37868381  1
  Co  Co44  1  0.49995545  0.75255086  0.37871510  1
  Co  Co45  1  0.24747886  0.49994311  0.37876906  1
  Co  Co46  1  0.49953870  0.24777882  0.62119690  1
  Co  Co47  1  0.75253564  0.50006737  0.62117567  1
  Co  Co48  1  0.50002617  0.75259325  0.62112428  1
  Co  Co49  1  0.24755853  0.49984246  0.62134354  1
  Co  Co50  1  0.69084134  0.30909760  0.37576622  1
  Co  Co51  1  0.69080633  0.30907322  0.62420453  1
  Co  Co52  1  0.69090510  0.69096930  0.37568968  1
  Co  Co53  1  0.30915656  0.30915660  0.37565493  1
  Co  Co54  1  0.31010579  0.30979591  0.62497863  1
  Co  Co55  1  0.69095914  0.69106000  0.62408949  1
  Co  Co56  1  0.30912379  0.69090483  0.37575215  1
  Co  Co57  1  0.30912351  0.69094883  0.62420199  1
  Co  Co58  1  0.63729028  0.75020056  0.37520091  1
  Co  Co59  1  0.63716903  0.24995181  0.37528686  1
  Co  Co60  1  0.75014482  0.63739819  0.37523762  1
  Co  Co61  1  0.36264307  0.75013952  0.37527412  1
  Co  Co62  1  0.75010430  0.36264404  0.37537628  1
  Co  Co63  1  0.36265195  0.24992233  0.37518741  1
  Co  Co64  1  0.24985944  0.63730985  0.37529723  1
  Co  Co65  1  0.24996080  0.36267032  0.37510802  1
  Co  Co66  1  0.36229943  0.25000660  0.62531358  1
  Co  Co67  1  0.63708013  0.24991666  0.62461683  1
  Co  Co68  1  0.63740778  0.75031745  0.62453268  1
  Co  Co69  1  0.36259418  0.75023772  0.62464832  1
  Co  Co70  1  0.75006616  0.36271536  0.62465994  1
  Co  Co71  1  0.25054563  0.36289904  0.62514869  1
  Co  Co72  1  0.75024490  0.63757187  0.62455387  1
  Co  Co73  1  0.24987361  0.63736935  0.62464836  1
  H  H74  1  0.33252631  0.26668561  0.71295546  1
  Pt  Pt75  1  0.50000806  0.50005166  0.50005326  1
  Pt  Pt76  1  0.56345997  0.43652629  0.50006762  1
  Pt  Pt77  1  0.56354218  0.56353324  0.50001767  1
  Pt  Pt78  1  0.43653366  0.43654370  0.49995624  1
  Pt  Pt79  1  0.43658047  0.56360052  0.50001010  1
  Pt  Pt80  1  0.56425457  0.50004223  0.42982038  1
  Pt  Pt81  1  0.50001218  0.43578926  0.42974681  1
  Pt  Pt82  1  0.50005214  0.56431005  0.42977861  1
  Pt  Pt83  1  0.43583841  0.50004535  0.42973580  1
  Pt  Pt84  1  0.56420024  0.50001062  0.57027267  1
  Pt  Pt85  1  0.49980214  0.43559621  0.57037789  1
  Pt  Pt86  1  0.43589523  0.49987737  0.57035545  1
  Pt  Pt87  1  0.50005894  0.56422230  0.57027644  1
  Pt  Pt88  1  0.62782546  0.50000435  0.50002839  1
  Pt  Pt89  1  0.50000852  0.37223398  0.49991240  1
  Pt  Pt90  1  0.37225441  0.50013120  0.49982793  1
  Pt  Pt91  1  0.50009481  0.62787328  0.49998959  1
  Pt  Pt92  1  0.62790899  0.43585526  0.43187870  1
  Pt  Pt93  1  0.56423718  0.37216285  0.43177661  1
  Pt  Pt94  1  0.56424090  0.62799375  0.43182383  1
  Pt  Pt95  1  0.37211034  0.43582757  0.43181433  1
  Pt  Pt96  1  0.62794938  0.56424927  0.43186724  1
  Pt  Pt97  1  0.43581331  0.37213252  0.43176770  1
  Pt  Pt98  1  0.37213798  0.56425477  0.43186168  1
  Pt  Pt99  1  0.43584948  0.62800441  0.43184540  1
  Pt  Pt100  1  0.56409867  0.37224518  0.56838532  1
  Pt  Pt101  1  0.62779327  0.43585232  0.56828861  1
  Pt  Pt102  1  0.56430274  0.62799249  0.56808050  1
  Pt  Pt103  1  0.37224408  0.43603190  0.56785183  1
  Pt  Pt104  1  0.62796211  0.56427978  0.56805120  1
  Pt  Pt105  1  0.43556022  0.37189641  0.56800516  1
  Pt  Pt106  1  0.43584389  0.62791544  0.56814193  1
  Pt  Pt107  1  0.37219820  0.56409293  0.56808304  1
  Pt  Pt108  1  0.62867330  0.37138538  0.50001485  1
  Pt  Pt109  1  0.62876832  0.62879187  0.49997117  1
  Pt  Pt110  1  0.37136918  0.37119872  0.49991206  1
  Pt  Pt111  1  0.37130426  0.62874528  0.50002020  1
  Pt  Pt112  1  0.56486028  0.50006769  0.31653463  1
  Pt  Pt113  1  0.50002233  0.43521913  0.31651936  1
  Pt  Pt114  1  0.43519323  0.50007208  0.31657270  1
  Pt  Pt115  1  0.50003777  0.56489940  0.31657153  1
  Pt  Pt116  1  0.56495303  0.50023738  0.68337513  1
  Pt  Pt117  1  0.49972311  0.43497887  0.68361991  1
  Pt  Pt118  1  0.50008578  0.56490397  0.68335069  1
  Pt  Pt119  1  0.43522901  0.49988667  0.68329816  1
  Pt  Pt120  1  0.56457640  0.30572593  0.49981828  1
  Pt  Pt121  1  0.69429936  0.43551473  0.49999650  1
  Pt  Pt122  1  0.69439112  0.56458464  0.49997892  1
  Pt  Pt123  1  0.43552391  0.30565821  0.49992266  1
  Pt  Pt124  1  0.56461461  0.69442567  0.49994240  1
  Pt  Pt125  1  0.30575887  0.43535778  0.50004883  1
  Pt  Pt126  1  0.30569120  0.56453000  0.50003625  1
  Pt  Pt127  1  0.43550460  0.69433679  0.50000800  1
  Pt  Pt128  1  0.50002115  0.30666362  0.43497758  1
  Pt  Pt129  1  0.69341452  0.50005802  0.43514343  1
  Pt  Pt130  1  0.69338464  0.50000397  0.56481889  1
  Pt  Pt131  1  0.50033476  0.30666053  0.56449621  1
  Pt  Pt132  1  0.30661010  0.50004250  0.43513229  1
  Pt  Pt133  1  0.50003580  0.69350036  0.43513111  1
  Pt  Pt134  1  0.30667976  0.49986780  0.56490137  1
  Pt  Pt135  1  0.50009553  0.69343687  0.56480066  1
  Pt  Pt136  1  0.56389097  0.37115833  0.31821236  1
  Pt  Pt137  1  0.62895816  0.43623741  0.31822257  1
  Pt  Pt138  1  0.56387450  0.62897671  0.31827810  1
  Pt  Pt139  1  0.37110438  0.43621425  0.31820055  1
  Pt  Pt140  1  0.62893922  0.56388375  0.31825684  1
  Pt  Pt141  1  0.37112624  0.56388101  0.31828501  1
  Pt  Pt142  1  0.43616546  0.37113281  0.31819886  1
  Pt  Pt143  1  0.43620302  0.62897181  0.31827238  1
  Pt  Pt144  1  0.62885459  0.43625341  0.68173733  1
  Pt  Pt145  1  0.56368587  0.37120520  0.68178390  1
  Pt  Pt146  1  0.56393819  0.62906430  0.68168130  1
  Pt  Pt147  1  0.37113158  0.43593075  0.68183834  1
  Pt  Pt148  1  0.62906898  0.56403036  0.68170464  1
  Pt  Pt149  1  0.43468566  0.36958274  0.68184978  1
  Pt  Pt150  1  0.37120624  0.56385170  0.68165902  1
  Pt  Pt151  1  0.43625143  0.62898960  0.68165380  1
  Pt  Pt152  1  0.62668714  0.30714562  0.43413854  1
  Pt  Pt153  1  0.37340631  0.30709190  0.43402914  1
  Pt  Pt154  1  0.69295920  0.37333395  0.43412553  1
  Pt  Pt155  1  0.69299639  0.62675464  0.43408057  1
  Pt  Pt156  1  0.62660138  0.30722386  0.56585961  1
  Pt  Pt157  1  0.69287522  0.37338759  0.56590353  1
  Pt  Pt158  1  0.69306941  0.62677331  0.56581244  1
  Pt  Pt159  1  0.37360871  0.30685863  0.56618714  1
  Pt  Pt160  1  0.62674322  0.69298650  0.43408784  1
  Pt  Pt161  1  0.30707204  0.37334517  0.43404959  1
  Pt  Pt162  1  0.30704371  0.62667731  0.43411562  1
  Pt  Pt163  1  0.37331403  0.69296791  0.43416152  1
  Pt  Pt164  1  0.62677709  0.69307897  0.56577260  1
  Pt  Pt165  1  0.30771818  0.37316020  0.56603907  1
  Pt  Pt166  1  0.30709773  0.62667328  0.56593488  1
  Pt  Pt167  1  0.37337662  0.69300564  0.56589397  1
  Pt  Pt168  1  0.50007656  0.50004074  0.74477021  1
  Pt  Pt169  1  0.50002242  0.50010448  0.25514392  1
  Pt  Pt170  1  0.50006668  0.24733279  0.49982679  1
  Pt  Pt171  1  0.75263271  0.50003153  0.49997938  1
  Pt  Pt172  1  0.50002407  0.75273857  0.49999710  1
  Pt  Pt173  1  0.24748495  0.49989154  0.50004860  1
  Pt  Pt174  1  0.50002533  0.30132147  0.31438757  1
  Pt  Pt175  1  0.69875424  0.50004922  0.31442858  1
  Pt  Pt176  1  0.69885766  0.50008674  0.68561631  1
  Pt  Pt177  1  0.50000080  0.30133836  0.68569499  1
  Pt  Pt178  1  0.30125117  0.50003392  0.31437456  1
  Pt  Pt179  1  0.49998208  0.69881955  0.31436536  1
  Pt  Pt180  1  0.30155985  0.50002424  0.68551894  1
  Pt  Pt181  1  0.50008515  0.69888637  0.68554121  1
  Pt  Pt182  1  0.57027660  0.42992152  0.75443684  1
  Pt  Pt183  1  0.57030404  0.42986844  0.24542741  1
  Pt  Pt184  1  0.57037897  0.57036707  0.75448980  1
  Pt  Pt185  1  0.57023353  0.57026932  0.24550361  1
  Pt  Pt186  1  0.43028413  0.43004833  0.75399545  1
  Pt  Pt187  1  0.42982889  0.42986779  0.24544660  1
  Pt  Pt188  1  0.42982259  0.57027678  0.24550096  1
  Pt  Pt189  1  0.42995058  0.57032492  0.75433263  1
  Pt  Pt190  1  0.69680308  0.30311257  0.50002183  1
  Pt  Pt191  1  0.30317296  0.30314209  0.50006052  1
  Pt  Pt192  1  0.69691601  0.69698382  0.49992500  1
  Pt  Pt193  1  0.30314080  0.69686505  0.50003242  1
  Pt  Pt194  1  0.57392829  0.23098536  0.42215643  1
  Pt  Pt195  1  0.57402666  0.76911058  0.42203685  1
  Pt  Pt196  1  0.76908686  0.42601135  0.42205956  1
  Pt  Pt197  1  0.23092464  0.42589397  0.42194037  1
  Pt  Pt198  1  0.42593798  0.23096445  0.42201382  1
  Pt  Pt199  1  0.76911471  0.57409756  0.42205577  1
  Pt  Pt200  1  0.23089802  0.57402651  0.42212783  1
  Pt  Pt201  1  0.42593589  0.76909914  0.42207344  1
  Pt  Pt202  1  0.57380289  0.23118023  0.57771908  1
  Pt  Pt203  1  0.57408310  0.76920483  0.57778926  1
  Pt  Pt204  1  0.76903377  0.42602796  0.57786591  1
  Pt  Pt205  1  0.23142222  0.42580566  0.57779638  1
  Pt  Pt206  1  0.42555117  0.23075993  0.57832654  1
  Pt  Pt207  1  0.42595945  0.76920597  0.57791798  1
  Pt  Pt208  1  0.76914875  0.57413957  0.57791000  1
  Pt  Pt209  1  0.23100125  0.57391994  0.57800339  1
  Pt  Pt210  1  0.63281478  0.50005674  0.24865925  1
  Pt  Pt211  1  0.63287050  0.50018100  0.75124678  1
  Pt  Pt212  1  0.50001586  0.36739594  0.75133905  1
  Pt  Pt213  1  0.50005289  0.36735114  0.24865202  1
  Pt  Pt214  1  0.50001015  0.63281839  0.24870168  1
  Pt  Pt215  1  0.36759467  0.50023779  0.75126739  1
  Pt  Pt216  1  0.36730760  0.50010319  0.24868170  1
  Pt  Pt217  1  0.50015216  0.63288347  0.75115693  1
  Pt  Pt218  1  0.63004816  0.23907346  0.50006307  1
  Pt  Pt219  1  0.36981121  0.23916656  0.49997882  1
  Pt  Pt220  1  0.63021906  0.76108475  0.49993193  1
  Pt  Pt221  1  0.76100207  0.63031280  0.49993948  1
  Pt  Pt222  1  0.36980537  0.76094197  0.50001558  1
  Pt  Pt223  1  0.76085175  0.36981446  0.50000806  1
  Pt  Pt224  1  0.23907697  0.63017951  0.50014029  1
  Pt  Pt225  1  0.23925600  0.36971886  0.50024970  1
  Pt  Pt226  1  0.63308242  0.30518764  0.31618814  1
  Pt  Pt227  1  0.69489169  0.36695494  0.31623978  1
  Pt  Pt228  1  0.36700349  0.30519260  0.31613761  1
  Pt  Pt229  1  0.69487244  0.63313170  0.31619572  1
  Pt  Pt230  1  0.63292084  0.30521390  0.68368362  1
  Pt  Pt231  1  0.36350057  0.30113106  0.68930191  1
  Pt  Pt232  1  0.69479775  0.36694804  0.68373046  1
  Pt  Pt233  1  0.69494731  0.63325711  0.68361150  1
  Pt  Pt234  1  0.63308217  0.69488950  0.31619563  1
  Pt  Pt235  1  0.30522671  0.36696318  0.31609164  1
  Pt  Pt236  1  0.30515303  0.63305959  0.31625501  1
  Pt  Pt237  1  0.36689312  0.69485744  0.31622971  1
  Pt  Pt238  1  0.63316781  0.69503679  0.68360794  1
  Pt  Pt239  1  0.30552956  0.36735881  0.68458461  1
  Pt  Pt240  1  0.30521737  0.63307566  0.68366089  1
  Pt  Pt241  1  0.36697473  0.69491663  0.68369844  1
  Pt  Pt242  1  0.63145026  0.36857603  0.74709158  1
  Pt  Pt243  1  0.63155245  0.36856078  0.25287724  1
  Pt  Pt244  1  0.63161397  0.63168232  0.74693345  1
  Pt  Pt245  1  0.63149605  0.63154235  0.25284931  1
  Pt  Pt246  1  0.36859196  0.36857863  0.25278338  1
  Pt  Pt247  1  0.36851104  0.63149524  0.25290232  1
  Pt  Pt248  1  0.36867242  0.36901490  0.74809355  1
  Pt  Pt249  1  0.36859033  0.63151444  0.74696423  1
  Pt  Pt250  1  0.56903017  0.24427114  0.32866565  1
  Pt  Pt251  1  0.75578811  0.43093720  0.32887555  1
  Pt  Pt252  1  0.56906734  0.75581244  0.32868231  1
  Pt  Pt253  1  0.24430700  0.43092673  0.32859671  1
  Pt  Pt254  1  0.43095401  0.24424121  0.32865980  1
  Pt  Pt255  1  0.24419204  0.56903177  0.32882599  1
  Pt  Pt256  1  0.75579278  0.56913914  0.32872184  1
  Pt  Pt257  1  0.43087078  0.75580223  0.32870410  1
  Pt  Pt258  1  0.56887190  0.24424682  0.67116095  1
  Pt  Pt259  1  0.56913210  0.75591317  0.67107032  1
  Pt  Pt260  1  0.75577078  0.43095551  0.67119236  1
  Pt  Pt261  1  0.24445636  0.43111057  0.67150327  1
  Pt  Pt262  1  0.43083203  0.24489224  0.67150803  1
  Pt  Pt263  1  0.75579204  0.56926318  0.67108940  1
  Pt  Pt264  1  0.43092856  0.75581380  0.67110786  1
  Pt  Pt265  1  0.24433096  0.56901769  0.67113697  1
  Pt  Pt266  1  0.56746238  0.30630878  0.25655110  1
  Pt  Pt267  1  0.56741501  0.30628338  0.74342629  1
  Pt  Pt268  1  0.69374408  0.43261217  0.74331384  1
  Pt  Pt269  1  0.69389034  0.43260694  0.25666087  1
  Pt  Pt270  1  0.69390177  0.56761824  0.74322735  1
  Pt  Pt271  1  0.43322016  0.30655939  0.74431787  1
  Pt  Pt272  1  0.43265392  0.30630430  0.25651112  1
  Pt  Pt273  1  0.69377713  0.56747395  0.25656339  1
  Pt  Pt274  1  0.56744797  0.69382522  0.25657501  1
  Pt  Pt275  1  0.56757665  0.69398787  0.74324539  1
  Pt  Pt276  1  0.30657139  0.43311314  0.74399332  1
  Pt  Pt277  1  0.30631744  0.43266005  0.25649058  1
  Pt  Pt278  1  0.30622350  0.56747157  0.25662650  1
  Pt  Pt279  1  0.30629762  0.56749350  0.74330855  1
  Pt  Pt280  1  0.43260037  0.69382460  0.74326131  1
  Pt  Pt281  1  0.43251121  0.69379533  0.25659409  1
  Pt  Pt282  1  0.81347396  0.43843252  0.49996538  1
  Pt  Pt283  1  0.56140426  0.18639589  0.50004195  1
  Pt  Pt284  1  0.81346522  0.56163339  0.49997231  1
  Pt  Pt285  1  0.43842859  0.18669267  0.50012156  1
  Pt  Pt286  1  0.56157619  0.81360641  0.49989848  1
  Pt  Pt287  1  0.18663527  0.43829230  0.49997686  1
  Pt  Pt288  1  0.18666704  0.56142753  0.50008634  1
  Pt  Pt289  1  0.43843579  0.81349815  0.49996416  1
  Pt  Pt290  1  0.81460353  0.50004803  0.43502922  1
  Pt  Pt291  1  0.49991386  0.18542464  0.43500473  1
  Pt  Pt292  1  0.69157624  0.24423643  0.43370154  1
  Pt  Pt293  1  0.75560863  0.30810123  0.43368809  1
  Pt  Pt294  1  0.24429826  0.30841107  0.43364935  1
  Pt  Pt295  1  0.69175960  0.75582501  0.43357725  1
  Pt  Pt296  1  0.81456009  0.50005180  0.56490534  1
  Pt  Pt297  1  0.49975936  0.18563145  0.56514877  1
  Pt  Pt298  1  0.69159676  0.24426548  0.56633715  1
  Pt  Pt299  1  0.69189833  0.75586673  0.56616314  1
  Pt  Pt300  1  0.75559359  0.30819599  0.56633852  1
  Pt  Pt301  1  0.24489123  0.30835723  0.56692325  1
  Pt  Pt302  1  0.30822130  0.24446293  0.43363400  1
  Pt  Pt303  1  0.30819221  0.75568314  0.43370852  1
  Pt  Pt304  1  0.75570321  0.69191949  0.43356534  1
  Pt  Pt305  1  0.24428425  0.69169975  0.43374569  1
  Pt  Pt306  1  0.18552293  0.49990477  0.43508537  1
  Pt  Pt307  1  0.49997523  0.81461666  0.43499361  1
  Pt  Pt308  1  0.30853761  0.24440586  0.56644217  1
  Pt  Pt309  1  0.30818190  0.75579724  0.56626883  1
  Pt  Pt310  1  0.75581585  0.69199542  0.56615622  1
  Pt  Pt311  1  0.24429026  0.69186553  0.56631160  1
  Pt  Pt312  1  0.50001462  0.81464566  0.56491336  1
  Pt  Pt313  1  0.18564261  0.49977656  0.56500726  1
  Pt  Pt314  1  0.56339809  0.50010542  0.19223821  1
  Pt  Pt315  1  0.50005994  0.43678428  0.19225787  1
  Pt  Pt316  1  0.50004558  0.56344373  0.19225667  1
  Pt  Pt317  1  0.43669726  0.50010228  0.19222588  1
  Pt  Pt318  1  0.50015841  0.43670065  0.80780503  1
  Pt  Pt319  1  0.56341132  0.50010992  0.80758510  1
  Pt  Pt320  1  0.50014330  0.56348712  0.80753723  1
  Pt  Pt321  1  0.43694209  0.50009745  0.80772480  1
