# generated using pymatgen
data_HPt230Au19
_symmetry_space_group_name_H-M   'P 1'
_cell_length_a   30.00000000
_cell_length_b   30.00000000
_cell_length_c   30.00000000
_cell_angle_alpha   90.00000000
_cell_angle_beta   90.00000000
_cell_angle_gamma   90.00000000
_symmetry_Int_Tables_number   1
_chemical_formula_structural   HPt230Au19
_chemical_formula_sum   'H1 Pt230 Au19'
_cell_volume   27000.00000000
_cell_formula_units_Z   1
loop_
 _symmetry_equiv_pos_site_id
 _symmetry_equiv_pos_as_xyz
  1  'x, y, z'
loop_
 _atom_site_type_symbol
 _atom_site_label
 _atom_site_symmetry_multiplicity
 _atom_site_fract_x
 _atom_site_fract_y
 _atom_site_fract_z
 _atom_site_occupancy
  H  H0  1  0.38613000  0.34644000  0.82539000  1
  Pt  Pt1  1  0.49852000  0.50112000  0.50028000  1
  Pt  Pt2  1  0.45385000  0.56724000  0.54746000  1
  Pt  Pt3  1  0.40582000  0.50113000  0.50028000  1
  Pt  Pt4  1  0.54587000  0.56630000  0.45376000  1
  Pt  Pt5  1  0.49852000  0.50112000  0.40725000  1
  Pt  Pt6  1  0.54802000  0.56522000  0.54746000  1
  Pt  Pt7  1  0.45263000  0.43393000  0.45376000  1
  Pt  Pt8  1  0.54507000  0.43363000  0.45376000  1
  Pt  Pt9  1  0.59276000  0.49928000  0.50061000  1
  Pt  Pt10  1  0.54507000  0.43363000  0.54746000  1
  Pt  Pt11  1  0.49852000  0.50112000  0.59464000  1
  Pt  Pt12  1  0.45048000  0.43501000  0.54746000  1
  Pt  Pt13  1  0.45171000  0.56833000  0.45376000  1
  Pt  Pt14  1  0.50121000  0.63243000  0.50094000  1
  Pt  Pt15  1  0.40582000  0.50113000  0.40725000  1
  Pt  Pt16  1  0.40582000  0.50113000  0.59464000  1
  Pt  Pt17  1  0.59276000  0.49928000  0.40692000  1
  Pt  Pt18  1  0.49738000  0.36798000  0.50061000  1
  Pt  Pt19  1  0.59276000  0.49928000  0.59431000  1
  Pt  Pt20  1  0.63751000  0.43334000  0.45376000  1
  Pt  Pt21  1  0.50121000  0.63243000  0.59398000  1
  Pt  Pt22  1  0.35846000  0.43595000  0.45376000  1
  Pt  Pt23  1  0.45385000  0.56724000  0.36007000  1
  Pt  Pt24  1  0.50121000  0.63243000  0.40658000  1
  Pt  Pt25  1  0.54587000  0.56630000  0.64116000  1
  Pt  Pt26  1  0.40313000  0.36983000  0.50094000  1
  Pt  Pt27  1  0.54802000  0.56522000  0.36007000  1
  Pt  Pt28  1  0.45263000  0.43393000  0.64116000  1
  Pt  Pt29  1  0.54507000  0.43363000  0.36007000  1
  Pt  Pt30  1  0.64046000  0.56492000  0.45376000  1
  Pt  Pt31  1  0.49738000  0.36798000  0.40692000  1
  Pt  Pt32  1  0.64046000  0.56492000  0.54746000  1
  Pt  Pt33  1  0.49738000  0.36798000  0.59431000  1
  Pt  Pt34  1  0.54507000  0.43363000  0.64116000  1
  Pt  Pt35  1  0.35927000  0.56863000  0.45376000  1
  Pt  Pt36  1  0.40696000  0.63427000  0.50061000  1
  Pt  Pt37  1  0.35927000  0.56863000  0.54746000  1
  Pt  Pt38  1  0.59391000  0.63242000  0.50094000  1
  Pt  Pt39  1  0.45048000  0.43501000  0.36007000  1
  Pt  Pt40  1  0.45171000  0.56833000  0.64116000  1
  Pt  Pt41  1  0.35632000  0.43704000  0.54746000  1
  Pt  Pt42  1  0.63966000  0.43225000  0.54746000  1
  Pt  Pt43  1  0.59162000  0.36614000  0.50028000  1
  Pt  Pt44  1  0.40313000  0.36983000  0.59398000  1
  Pt  Pt45  1  0.49852000  0.50112000  0.68767000  1
  Pt  Pt46  1  0.40313000  0.36983000  0.40658000  1
  Pt  Pt47  1  0.59391000  0.63242000  0.59398000  1
  Pt  Pt48  1  0.40696000  0.63427000  0.40692000  1
  Pt  Pt49  1  0.31157000  0.50298000  0.50061000  1
  Pt  Pt50  1  0.40696000  0.63427000  0.59431000  1
  Pt  Pt51  1  0.49852000  0.50112000  0.31289000  1
  Pt  Pt52  1  0.59391000  0.63242000  0.40658000  1
  Pt  Pt53  1  0.68701000  0.49743000  0.50094000  1
  Pt  Pt54  1  0.59162000  0.36614000  0.40725000  1
  Pt  Pt55  1  0.59162000  0.36614000  0.59464000  1
  Pt  Pt56  1  0.63751000  0.43334000  0.64116000  1
  Pt  Pt57  1  0.54212000  0.30204000  0.54746000  1
  Pt  Pt58  1  0.40582000  0.50113000  0.68767000  1
  Pt  Pt59  1  0.35846000  0.43595000  0.64116000  1
  Pt  Pt60  1  0.59276000  0.49928000  0.31322000  1
  Pt  Pt61  1  0.64046000  0.56492000  0.36007000  1
  Pt  Pt62  1  0.44968000  0.30234000  0.45376000  1
  Pt  Pt63  1  0.64046000  0.56492000  0.64116000  1
  Pt  Pt64  1  0.44968000  0.30234000  0.54746000  1
  Pt  Pt65  1  0.59276000  0.49928000  0.68800000  1
  Pt  Pt66  1  0.35927000  0.56863000  0.36007000  1
  Pt  Pt67  1  0.45466000  0.69992000  0.45376000  1
  Pt  Pt68  1  0.31157000  0.50298000  0.40692000  1
  Pt  Pt69  1  0.45466000  0.69992000  0.54746000  1
  Pt  Pt70  1  0.31157000  0.50298000  0.59431000  1
  Pt  Pt71  1  0.35927000  0.56863000  0.64116000  1
  Pt  Pt72  1  0.54924000  0.69854000  0.45376000  1
  Pt  Pt73  1  0.40582000  0.50113000  0.31289000  1
  Pt  Pt74  1  0.68701000  0.49743000  0.59398000  1
  Pt  Pt75  1  0.54427000  0.30096000  0.45376000  1
  Pt  Pt76  1  0.54709000  0.69962000  0.54746000  1
  Pt  Pt77  1  0.35632000  0.43704000  0.36007000  1
  Pt  Pt78  1  0.63966000  0.43225000  0.36007000  1
  Pt  Pt79  1  0.68701000  0.49743000  0.40658000  1
  Pt  Pt80  1  0.68432000  0.36613000  0.50028000  1
  Pt  Pt81  1  0.50121000  0.63243000  0.31355000  1
  Pt  Pt82  1  0.50121000  0.63243000  0.68834000  1
  Pt  Pt83  1  0.31043000  0.36984000  0.50094000  1
  Pt  Pt84  1  0.49738000  0.36798000  0.31322000  1
  Pt  Pt85  1  0.68815000  0.63057000  0.50061000  1
  Pt  Pt86  1  0.49738000  0.36798000  0.68800000  1
  Pt  Pt87  1  0.31271000  0.63612000  0.50028000  1
  Pt  Pt88  1  0.36222000  0.70021000  0.54746000  1
  Pt  Pt89  1  0.26683000  0.56892000  0.45376000  1
  Pt  Pt90  1  0.73290000  0.56463000  0.54746000  1
  Pt  Pt91  1  0.54212000  0.30204000  0.36007000  1
  Pt  Pt92  1  0.73168000  0.43131000  0.45376000  1
  Pt  Pt93  1  0.68432000  0.36613000  0.40725000  1
  Pt  Pt94  1  0.63629000  0.30002000  0.54746000  1
  Pt  Pt95  1  0.68432000  0.36613000  0.59464000  1
  Pt  Pt96  1  0.64126000  0.69760000  0.54746000  1
  Pt  Pt97  1  0.40313000  0.36983000  0.31355000  1
  Pt  Pt98  1  0.31043000  0.36984000  0.59398000  1
  Pt  Pt99  1  0.45385000  0.56724000  0.73485000  1
  Pt  Pt100  1  0.54587000  0.56630000  0.26637000  1
  Pt  Pt101  1  0.59391000  0.63242000  0.31355000  1
  Pt  Pt102  1  0.64341000  0.69651000  0.45376000  1
  Pt  Pt103  1  0.45263000  0.43393000  0.26637000  1
  Pt  Pt104  1  0.35724000  0.30263000  0.54746000  1
  Pt  Pt105  1  0.54802000  0.56522000  0.73485000  1
  Pt  Pt106  1  0.54507000  0.43363000  0.26637000  1
  Pt  Pt107  1  0.68815000  0.63057000  0.40692000  1
  Pt  Pt108  1  0.44968000  0.30234000  0.36007000  1
  Pt  Pt109  1  0.68815000  0.63057000  0.59431000  1
  Pt  Pt110  1  0.44968000  0.30234000  0.64116000  1
  Pt  Pt111  1  0.54507000  0.43363000  0.73485000  1
  Pt  Pt112  1  0.40696000  0.63427000  0.31322000  1
  Pt  Pt113  1  0.45466000  0.69992000  0.36007000  1
  Pt  Pt114  1  0.26388000  0.43733000  0.45376000  1
  Pt  Pt115  1  0.45466000  0.69992000  0.64116000  1
  Pt  Pt116  1  0.26388000  0.43733000  0.54746000  1
  Pt  Pt117  1  0.40696000  0.63427000  0.68800000  1
  Pt  Pt118  1  0.54924000  0.69854000  0.64116000  1
  Pt  Pt119  1  0.31043000  0.36984000  0.40658000  1
  Pt  Pt120  1  0.40313000  0.36983000  0.68834000  1
  Pt  Pt121  1  0.45048000  0.43501000  0.73485000  1
  Pt  Pt122  1  0.59162000  0.36614000  0.68767000  1
  Pt  Pt123  1  0.54427000  0.30096000  0.64116000  1
  Pt  Pt124  1  0.35509000  0.30372000  0.45376000  1
  Pt  Pt125  1  0.59391000  0.63242000  0.68834000  1
  Pt  Pt126  1  0.54709000  0.69962000  0.36007000  1
  Pt  Pt127  1  0.45171000  0.56833000  0.26637000  1
  Pt  Pt128  1  0.31271000  0.63612000  0.40725000  1
  Pt  Pt129  1  0.36007000  0.70130000  0.45376000  1
  Pt  Pt130  1  0.73505000  0.56354000  0.45376000  1
  Pt  Pt131  1  0.59162000  0.36614000  0.31289000  1
  Pt  Pt132  1  0.31271000  0.63612000  0.59464000  1
  Pt  Pt133  1  0.26468000  0.57001000  0.54746000  1
  Pt  Pt134  1  0.73382000  0.43022000  0.54746000  1
  Pt  Pt135  1  0.63844000  0.29893000  0.45376000  1
  Pt  Pt136  1  0.31157000  0.50298000  0.31322000  1
  Pt  Pt137  1  0.50235000  0.76556000  0.50061000  1
  Pt  Pt138  1  0.31157000  0.50298000  0.68800000  1
  Pt  Pt139  1  0.68701000  0.49743000  0.31355000  1
  Pt  Pt140  1  0.68701000  0.49743000  0.68834000  1
  Pt  Pt141  1  0.49623000  0.23485000  0.50094000  1
  Pt  Pt142  1  0.36222000  0.70021000  0.36007000  1
  Pt  Pt143  1  0.26683000  0.56892000  0.64116000  1
  Pt  Pt144  1  0.73290000  0.56463000  0.36007000  1
  Pt  Pt145  1  0.63751000  0.43334000  0.26637000  1
  Pt  Pt146  1  0.73168000  0.43131000  0.64116000  1
  Pt  Pt147  1  0.58893000  0.23484000  0.50094000  1
  Pt  Pt148  1  0.63629000  0.30002000  0.36007000  1
  Pt  Pt149  1  0.77971000  0.49742000  0.50094000  1
  Pt  Pt150  1  0.59660000  0.76372000  0.50028000  1
  Pt  Pt151  1  0.35846000  0.43595000  0.26637000  1
  Pt  Pt152  1  0.64126000  0.69760000  0.36007000  1
  Pt  Pt153  1  0.49852000  0.50112000  0.21986000  1
  Pt  Pt154  1  0.64341000  0.69651000  0.64116000  1
  Pt  Pt155  1  0.35724000  0.30263000  0.36007000  1
  Pt  Pt156  1  0.64046000  0.56492000  0.26637000  1
  Pt  Pt157  1  0.40199000  0.23669000  0.50061000  1
  Pt  Pt158  1  0.64046000  0.56492000  0.73485000  1
  Pt  Pt159  1  0.35927000  0.56863000  0.26637000  1
  Pt  Pt160  1  0.50235000  0.76556000  0.40692000  1
  Pt  Pt161  1  0.26388000  0.43733000  0.36007000  1
  Pt  Pt162  1  0.50235000  0.76556000  0.59431000  1
  Pt  Pt163  1  0.26388000  0.43733000  0.64116000  1
  Pt  Pt164  1  0.35927000  0.56863000  0.73485000  1
  Pt  Pt165  1  0.35509000  0.30372000  0.64116000  1
  Pt  Pt166  1  0.49852000  0.50112000  0.78203000  1
  Pt  Pt167  1  0.35632000  0.43704000  0.73485000  1
  Pt  Pt168  1  0.49623000  0.23485000  0.59398000  1
  Pt  Pt169  1  0.63966000  0.43225000  0.73485000  1
  Pt  Pt170  1  0.21732000  0.50483000  0.50094000  1
  Pt  Pt171  1  0.36007000  0.70130000  0.64116000  1
  Pt  Pt172  1  0.73505000  0.56354000  0.64116000  1
  Pt  Pt173  1  0.49623000  0.23485000  0.40658000  1
  Pt  Pt174  1  0.40810000  0.76741000  0.50094000  1
  Pt  Pt175  1  0.26468000  0.57001000  0.36007000  1
  Pt  Pt176  1  0.73382000  0.43022000  0.36007000  1
  Pt  Pt177  1  0.63844000  0.29893000  0.64116000  1
  Pt  Pt178  1  0.58893000  0.23484000  0.59398000  1
  Pt  Pt179  1  0.68432000  0.36613000  0.68767000  1
  Pt  Pt180  1  0.58893000  0.23484000  0.40658000  1
  Pt  Pt181  1  0.77971000  0.49742000  0.59398000  1
  Pt  Pt182  1  0.59660000  0.76372000  0.40725000  1
  Pt  Pt183  1  0.40582000  0.50113000  0.21986000  1
  Pt  Pt184  1  0.68432000  0.36613000  0.31289000  1
  Pt  Pt185  1  0.77971000  0.49742000  0.40658000  1
  Pt  Pt186  1  0.59660000  0.76372000  0.59464000  1
  Pt  Pt187  1  0.31043000  0.36984000  0.31355000  1
  Pt  Pt188  1  0.68815000  0.63057000  0.31322000  1
  Pt  Pt189  1  0.59276000  0.49928000  0.21952000  1
  Pt  Pt190  1  0.40199000  0.23669000  0.40692000  1
  Pt  Pt191  1  0.68815000  0.63057000  0.68800000  1
  Pt  Pt192  1  0.40199000  0.23669000  0.59431000  1
  Pt  Pt193  1  0.59276000  0.49928000  0.78170000  1
  Pt  Pt194  1  0.31043000  0.36984000  0.68834000  1
  Pt  Pt195  1  0.40582000  0.50113000  0.78203000  1
  Pt  Pt196  1  0.21732000  0.50483000  0.59398000  1
  Pt  Pt197  1  0.31271000  0.63612000  0.68767000  1
  Pt  Pt198  1  0.21732000  0.50483000  0.40658000  1
  Pt  Pt199  1  0.40810000  0.76741000  0.59398000  1
  Pt  Pt200  1  0.31271000  0.63612000  0.31289000  1
  Pt  Pt201  1  0.40810000  0.76741000  0.40658000  1
  Pt  Pt202  1  0.54212000  0.30204000  0.73485000  1
  Pt  Pt203  1  0.50121000  0.63243000  0.78137000  1
  Pt  Pt204  1  0.26307000  0.30466000  0.54746000  1
  Pt  Pt205  1  0.26805000  0.70224000  0.54746000  1
  Pt  Pt206  1  0.22002000  0.63613000  0.50028000  1
  Pt  Pt207  1  0.73585000  0.69622000  0.45376000  1
  Pt  Pt208  1  0.49738000  0.36798000  0.21952000  1
  Pt  Pt209  1  0.73585000  0.69622000  0.54746000  1
  Pt  Pt210  1  0.44968000  0.30234000  0.26637000  1
  Pt  Pt211  1  0.49738000  0.36798000  0.78170000  1
  Pt  Pt212  1  0.44968000  0.30234000  0.73485000  1
  Pt  Pt213  1  0.45466000  0.69992000  0.26637000  1
  Pt  Pt214  1  0.21618000  0.37169000  0.50061000  1
  Pt  Pt215  1  0.45466000  0.69992000  0.73485000  1
  Pt  Pt216  1  0.54924000  0.69854000  0.26637000  1
  Pt  Pt217  1  0.50121000  0.63243000  0.21919000  1
  Pt  Pt218  1  0.73087000  0.29864000  0.45376000  1
  Pt  Pt219  1  0.77857000  0.36428000  0.50061000  1
  Pt  Pt220  1  0.73087000  0.29864000  0.54746000  1
  Pt  Pt221  1  0.78240000  0.62872000  0.50028000  1
  Pt  Pt222  1  0.54427000  0.30096000  0.26637000  1
  Pt  Pt223  1  0.26093000  0.30575000  0.45376000  1
  Pt  Pt224  1  0.54709000  0.69962000  0.73485000  1
  Pt  Pt225  1  0.26590000  0.70333000  0.45376000  1
  Pt  Pt226  1  0.31540000  0.76742000  0.50094000  1
  Pt  Pt227  1  0.22002000  0.63613000  0.40725000  1
  Pt  Pt228  1  0.22002000  0.63613000  0.59464000  1
  Pt  Pt229  1  0.40313000  0.36983000  0.78137000  1
  Pt  Pt230  1  0.30774000  0.23854000  0.50028000  1
  Au  Au231  1  0.59391000  0.63242000  0.78137000  1
  Au  Au232  1  0.50235000  0.76556000  0.31322000  1
  Au  Au233  1  0.40696000  0.63427000  0.21952000  1
  Au  Au234  1  0.21618000  0.37169000  0.40692000  1
  Au  Au235  1  0.50235000  0.76556000  0.68800000  1
  Au  Au236  1  0.21618000  0.37169000  0.59431000  1
  Au  Au237  1  0.40696000  0.63427000  0.78170000  1
  Au  Au238  1  0.78240000  0.62872000  0.40725000  1
  Au  Au239  1  0.59162000  0.36614000  0.21986000  1
  Au  Au240  1  0.68930000  0.76371000  0.50028000  1
  Au  Au241  1  0.40313000  0.36983000  0.21919000  1
  Au  Au242  1  0.77857000  0.36428000  0.40692000  1
  Au  Au243  1  0.68318000  0.23299000  0.50061000  1
  Au  Au244  1  0.77857000  0.36428000  0.59431000  1
  Au  Au245  1  0.78240000  0.62872000  0.59464000  1
  Au  Au246  1  0.49623000  0.23485000  0.31355000  1
  Au  Au247  1  0.59391000  0.63242000  0.21919000  1
  Au  Au248  1  0.49623000  0.23485000  0.68834000  1
  Au  Au249  1  0.59162000  0.36614000  0.78203000  1
