data_con6.63_90
_audit_creation_date              2024-05-14
_audit_creation_method            'Materials Studio'
_symmetry_space_group_name_H-M    'P1'
_symmetry_Int_Tables_number       1
_symmetry_cell_setting            triclinic
loop_
_symmetry_equiv_pos_as_xyz
  x,y,z
_cell_length_a                    30.0000
_cell_length_b                    30.0000
_cell_length_c                    30.0000
_cell_angle_alpha                 90.0000
_cell_angle_beta                  90.0000
_cell_angle_gamma                 90.0000
loop_
_atom_site_label
_atom_site_type_symbol
_atom_site_fract_x
_atom_site_fract_y
_atom_site_fract_z
_atom_site_U_iso_or_equiv
_atom_site_adp_type
_atom_site_occupancy
Pt1    Pt    0.49852   0.50112   0.50028   0.00000  Uiso   1.00
Pt2    Pt    0.45385   0.56724   0.54746   0.00000  Uiso   1.00
Pt3    Pt    0.40582   0.50113   0.50028   0.00000  Uiso   1.00
Pt4    Pt    0.54587   0.56630   0.45376   0.00000  Uiso   1.00
Pt5    Pt    0.49852   0.50112   0.40725   0.00000  Uiso   1.00
Pt6    Pt    0.54802   0.56522   0.54746   0.00000  Uiso   1.00
Pt7    Pt    0.45263   0.43393   0.45376   0.00000  Uiso   1.00
Pt8    Pt    0.54507   0.43363   0.45376   0.00000  Uiso   1.00
Pt9    Pt    0.59276   0.49928   0.50061   0.00000  Uiso   1.00
Pt10   Pt    0.54507   0.43363   0.54746   0.00000  Uiso   1.00
Pt11   Pt    0.49852   0.50112   0.59464   0.00000  Uiso   1.00
Pt12   Pt    0.45048   0.43501   0.54746   0.00000  Uiso   1.00
Pt13   Pt    0.45171   0.56833   0.45376   0.00000  Uiso   1.00
Pt14   Pt    0.50121   0.63243   0.50094   0.00000  Uiso   1.00
Pt15   Pt    0.40582   0.50113   0.40725   0.00000  Uiso   1.00
Pt16   Pt    0.40582   0.50113   0.59464   0.00000  Uiso   1.00
Pt17   Pt    0.59276   0.49928   0.40692   0.00000  Uiso   1.00
Pt18   Pt    0.49738   0.36798   0.50061   0.00000  Uiso   1.00
Pt19   Pt    0.59276   0.49928   0.59431   0.00000  Uiso   1.00
Pt20   Pt    0.63751   0.43334   0.45376   0.00000  Uiso   1.00
Pt21   Pt    0.50121   0.63243   0.59398   0.00000  Uiso   1.00
Pt22   Pt    0.35846   0.43595   0.45376   0.00000  Uiso   1.00
Pt23   Pt    0.45385   0.56724   0.36007   0.00000  Uiso   1.00
Pt24   Pt    0.50121   0.63243   0.40658   0.00000  Uiso   1.00
Pt25   Pt    0.54587   0.56630   0.64116   0.00000  Uiso   1.00
Pt26   Pt    0.40313   0.36983   0.50094   0.00000  Uiso   1.00
Pt27   Pt    0.54802   0.56522   0.36007   0.00000  Uiso   1.00
Pt28   Pt    0.45263   0.43393   0.64116   0.00000  Uiso   1.00
Pt29   Pt    0.54507   0.43363   0.36007   0.00000  Uiso   1.00
Pt30   Pt    0.64046   0.56492   0.45376   0.00000  Uiso   1.00
Pt31   Pt    0.49738   0.36798   0.40692   0.00000  Uiso   1.00
Pt32   Pt    0.64046   0.56492   0.54746   0.00000  Uiso   1.00
Pt33   Pt    0.49738   0.36798   0.59431   0.00000  Uiso   1.00
Pt34   Pt    0.54507   0.43363   0.64116   0.00000  Uiso   1.00
Pt35   Pt    0.35927   0.56863   0.45376   0.00000  Uiso   1.00
Pt36   Pt    0.40696   0.63427   0.50061   0.00000  Uiso   1.00
Pt37   Pt    0.35927   0.56863   0.54746   0.00000  Uiso   1.00
Pt38   Pt    0.59391   0.63242   0.50094   0.00000  Uiso   1.00
Pt39   Pt    0.45048   0.43501   0.36007   0.00000  Uiso   1.00
Pt40   Pt    0.45171   0.56833   0.64116   0.00000  Uiso   1.00
Pt41   Pt    0.35632   0.43704   0.54746   0.00000  Uiso   1.00
Pt42   Pt    0.63966   0.43225   0.54746   0.00000  Uiso   1.00
Pt43   Pt    0.59162   0.36614   0.50028   0.00000  Uiso   1.00
Pt44   Pt    0.40313   0.36983   0.59398   0.00000  Uiso   1.00
Pt45   Pt    0.49852   0.50112   0.68767   0.00000  Uiso   1.00
Pt46   Pt    0.40313   0.36983   0.40658   0.00000  Uiso   1.00
Pt47   Pt    0.59391   0.63242   0.59398   0.00000  Uiso   1.00
Pt48   Pt    0.40696   0.63427   0.40692   0.00000  Uiso   1.00
Pt49   Pt    0.31157   0.50298   0.50061   0.00000  Uiso   1.00
Pt50   Pt    0.40696   0.63427   0.59431   0.00000  Uiso   1.00
Pt51   Pt    0.49852   0.50112   0.31289   0.00000  Uiso   1.00
Pt52   Pt    0.59391   0.63242   0.40658   0.00000  Uiso   1.00
Pt53   Pt    0.68701   0.49743   0.50094   0.00000  Uiso   1.00
Pt54   Pt    0.59162   0.36614   0.40725   0.00000  Uiso   1.00
Pt55   Pt    0.59162   0.36614   0.59464   0.00000  Uiso   1.00
Pt56   Pt    0.63751   0.43334   0.64116   0.00000  Uiso   1.00
Pt57   Pt    0.54212   0.30204   0.54746   0.00000  Uiso   1.00
Pt58   Pt    0.40582   0.50113   0.68767   0.00000  Uiso   1.00
Pt59   Pt    0.35846   0.43595   0.64116   0.00000  Uiso   1.00
Pt60   Pt    0.59276   0.49928   0.31322   0.00000  Uiso   1.00
Pt61   Pt    0.64046   0.56492   0.36007   0.00000  Uiso   1.00
Pt62   Pt    0.44968   0.30234   0.45376   0.00000  Uiso   1.00
Pt63   Pt    0.64046   0.56492   0.64116   0.00000  Uiso   1.00
Pt64   Pt    0.44968   0.30234   0.54746   0.00000  Uiso   1.00
Pt65   Pt    0.59276   0.49928   0.68800   0.00000  Uiso   1.00
Pt66   Pt    0.35927   0.56863   0.36007   0.00000  Uiso   1.00
Pt67   Pt    0.45466   0.69992   0.45376   0.00000  Uiso   1.00
Pt68   Pt    0.31157   0.50298   0.40692   0.00000  Uiso   1.00
Pt69   Pt    0.45466   0.69992   0.54746   0.00000  Uiso   1.00
Pt70   Pt    0.31157   0.50298   0.59431   0.00000  Uiso   1.00
Pt71   Pt    0.35927   0.56863   0.64116   0.00000  Uiso   1.00
Pt72   Pt    0.54924   0.69854   0.45376   0.00000  Uiso   1.00
Pt73   Pt    0.40582   0.50113   0.31289   0.00000  Uiso   1.00
Pt74   Pt    0.68701   0.49743   0.59398   0.00000  Uiso   1.00
Pt75   Pt    0.54427   0.30096   0.45376   0.00000  Uiso   1.00
Pt76   Pt    0.54709   0.69962   0.54746   0.00000  Uiso   1.00
Pt77   Pt    0.35632   0.43704   0.36007   0.00000  Uiso   1.00
Pt78   Pt    0.63966   0.43225   0.36007   0.00000  Uiso   1.00
Pt79   Pt    0.68701   0.49743   0.40658   0.00000  Uiso   1.00
Pt80   Pt    0.68432   0.36613   0.50028   0.00000  Uiso   1.00
Pt81   Pt    0.50121   0.63243   0.31355   0.00000  Uiso   1.00
Pt82   Pt    0.50121   0.63243   0.68834   0.00000  Uiso   1.00
Pt83   Pt    0.31043   0.36984   0.50094   0.00000  Uiso   1.00
Pt84   Pt    0.49738   0.36798   0.31322   0.00000  Uiso   1.00
Pt85   Pt    0.68815   0.63057   0.50061   0.00000  Uiso   1.00
Pt86   Pt    0.49738   0.36798   0.68800   0.00000  Uiso   1.00
Pt87   Pt    0.31271   0.63612   0.50028   0.00000  Uiso   1.00
Pt88   Pt    0.36222   0.70021   0.54746   0.00000  Uiso   1.00
Pt89   Pt    0.26683   0.56892   0.45376   0.00000  Uiso   1.00
Pt90   Pt    0.73290   0.56463   0.54746   0.00000  Uiso   1.00
Pt91   Pt    0.54212   0.30204   0.36007   0.00000  Uiso   1.00
Pt92   Pt    0.73168   0.43131   0.45376   0.00000  Uiso   1.00
Pt93   Pt    0.68432   0.36613   0.40725   0.00000  Uiso   1.00
Pt94   Pt    0.63629   0.30002   0.54746   0.00000  Uiso   1.00
Pt95   Pt    0.68432   0.36613   0.59464   0.00000  Uiso   1.00
Pt96   Pt    0.64126   0.69760   0.54746   0.00000  Uiso   1.00
Pt97   Pt    0.40313   0.36983   0.31355   0.00000  Uiso   1.00
Pt98   Pt    0.31043   0.36984   0.59398   0.00000  Uiso   1.00
Pt99   Pt    0.45385   0.56724   0.73485   0.00000  Uiso   1.00
Pt100  Pt    0.54587   0.56630   0.26637   0.00000  Uiso   1.00
Pt101  Pt    0.59391   0.63242   0.31355   0.00000  Uiso   1.00
Pt102  Pt    0.64341   0.69651   0.45376   0.00000  Uiso   1.00
Pt103  Pt    0.45263   0.43393   0.26637   0.00000  Uiso   1.00
Pt104  Pt    0.35724   0.30263   0.54746   0.00000  Uiso   1.00
Pt105  Pt    0.54802   0.56522   0.73485   0.00000  Uiso   1.00
Pt106  Pt    0.54507   0.43363   0.26637   0.00000  Uiso   1.00
Pt107  Pt    0.68815   0.63057   0.40692   0.00000  Uiso   1.00
Pt108  Pt    0.44968   0.30234   0.36007   0.00000  Uiso   1.00
Pt109  Pt    0.68815   0.63057   0.59431   0.00000  Uiso   1.00
Pt110  Pt    0.44968   0.30234   0.64116   0.00000  Uiso   1.00
Pt111  Pt    0.54507   0.43363   0.73485   0.00000  Uiso   1.00
Pt112  Pt    0.40696   0.63427   0.31322   0.00000  Uiso   1.00
Pt113  Pt    0.45466   0.69992   0.36007   0.00000  Uiso   1.00
Pt114  Pt    0.26388   0.43733   0.45376   0.00000  Uiso   1.00
Pt115  Pt    0.45466   0.69992   0.64116   0.00000  Uiso   1.00
Pt116  Pt    0.26388   0.43733   0.54746   0.00000  Uiso   1.00
Pt117  Pt    0.40696   0.63427   0.68800   0.00000  Uiso   1.00
Pt118  Pt    0.54924   0.69854   0.64116   0.00000  Uiso   1.00
Pt119  Pt    0.31043   0.36984   0.40658   0.00000  Uiso   1.00
Pt120  Pt    0.40313   0.36983   0.68834   0.00000  Uiso   1.00
Pt121  Pt    0.45048   0.43501   0.73485   0.00000  Uiso   1.00
Pt122  Pt    0.59162   0.36614   0.68767   0.00000  Uiso   1.00
Pt123  Pt    0.54427   0.30096   0.64116   0.00000  Uiso   1.00
Pt124  Pt    0.35509   0.30372   0.45376   0.00000  Uiso   1.00
Pt125  Pt    0.59391   0.63242   0.68834   0.00000  Uiso   1.00
Pt126  Pt    0.54709   0.69962   0.36007   0.00000  Uiso   1.00
Pt127  Pt    0.45171   0.56833   0.26637   0.00000  Uiso   1.00
Pt128  Pt    0.31271   0.63612   0.40725   0.00000  Uiso   1.00
Pt129  Pt    0.36007   0.70130   0.45376   0.00000  Uiso   1.00
Pt130  Pt    0.73505   0.56354   0.45376   0.00000  Uiso   1.00
Pt131  Pt    0.59162   0.36614   0.31289   0.00000  Uiso   1.00
Pt132  Pt    0.31271   0.63612   0.59464   0.00000  Uiso   1.00
Pt133  Pt    0.26468   0.57001   0.54746   0.00000  Uiso   1.00
Pt134  Pt    0.73382   0.43022   0.54746   0.00000  Uiso   1.00
Pt135  Pt    0.63844   0.29893   0.45376   0.00000  Uiso   1.00
Pt136  Pt    0.31157   0.50298   0.31322   0.00000  Uiso   1.00
Pt137  Pt    0.50235   0.76556   0.50061   0.00000  Uiso   1.00
Pt138  Pt    0.31157   0.50298   0.68800   0.00000  Uiso   1.00
Pt139  Pt    0.68701   0.49743   0.31355   0.00000  Uiso   1.00
Pt140  Pt    0.68701   0.49743   0.68834   0.00000  Uiso   1.00
Pt141  Pt    0.49623   0.23485   0.50094   0.00000  Uiso   1.00
Pt142  Pt    0.36222   0.70021   0.36007   0.00000  Uiso   1.00
Pt143  Pt    0.26683   0.56892   0.64116   0.00000  Uiso   1.00
Pt144  Pt    0.73290   0.56463   0.36007   0.00000  Uiso   1.00
Pt145  Pt    0.63751   0.43334   0.26637   0.00000  Uiso   1.00
Pt146  Pt    0.73168   0.43131   0.64116   0.00000  Uiso   1.00
Pt147  Pt    0.58893   0.23484   0.50094   0.00000  Uiso   1.00
Pt148  Pt    0.63629   0.30002   0.36007   0.00000  Uiso   1.00
Pt149  Pt    0.77971   0.49742   0.50094   0.00000  Uiso   1.00
Pt150  Pt    0.59660   0.76372   0.50028   0.00000  Uiso   1.00
Pt151  Pt    0.35846   0.43595   0.26637   0.00000  Uiso   1.00
Pt152  Pt    0.64126   0.69760   0.36007   0.00000  Uiso   1.00
Pt153  Pt    0.49852   0.50112   0.21986   0.00000  Uiso   1.00
Pt154  Pt    0.64341   0.69651   0.64116   0.00000  Uiso   1.00
Pt155  Pt    0.35724   0.30263   0.36007   0.00000  Uiso   1.00
Pt156  Pt    0.64046   0.56492   0.26637   0.00000  Uiso   1.00
Pt157  Pt    0.40199   0.23669   0.50061   0.00000  Uiso   1.00
Pt158  Pt    0.64046   0.56492   0.73485   0.00000  Uiso   1.00
Pt159  Pt    0.35927   0.56863   0.26637   0.00000  Uiso   1.00
Pt160  Pt    0.50235   0.76556   0.40692   0.00000  Uiso   1.00
Pt161  Pt    0.26388   0.43733   0.36007   0.00000  Uiso   1.00
Pt162  Pt    0.50235   0.76556   0.59431   0.00000  Uiso   1.00
Pt163  Pt    0.26388   0.43733   0.64116   0.00000  Uiso   1.00
Pt164  Pt    0.35927   0.56863   0.73485   0.00000  Uiso   1.00
Pt165  Pt    0.35509   0.30372   0.64116   0.00000  Uiso   1.00
Pt166  Pt    0.49852   0.50112   0.78203   0.00000  Uiso   1.00
Pt167  Pt    0.35632   0.43704   0.73485   0.00000  Uiso   1.00
Pt168  Pt    0.49623   0.23485   0.59398   0.00000  Uiso   1.00
Pt169  Pt    0.63966   0.43225   0.73485   0.00000  Uiso   1.00
Pt170  Pt    0.21732   0.50483   0.50094   0.00000  Uiso   1.00
Pt171  Pt    0.36007   0.70130   0.64116   0.00000  Uiso   1.00
Pt172  Pt    0.73505   0.56354   0.64116   0.00000  Uiso   1.00
Pt173  Pt    0.49623   0.23485   0.40658   0.00000  Uiso   1.00
Pt174  Pt    0.40810   0.76741   0.50094   0.00000  Uiso   1.00
Pt175  Pt    0.26468   0.57001   0.36007   0.00000  Uiso   1.00
Pt176  Pt    0.73382   0.43022   0.36007   0.00000  Uiso   1.00
Pt177  Pt    0.63844   0.29893   0.64116   0.00000  Uiso   1.00
Pt178  Pt    0.58893   0.23484   0.59398   0.00000  Uiso   1.00
Pt179  Pt    0.68432   0.36613   0.68767   0.00000  Uiso   1.00
Pt180  Pt    0.58893   0.23484   0.40658   0.00000  Uiso   1.00
Pt181  Pt    0.77971   0.49742   0.59398   0.00000  Uiso   1.00
Pt182  Pt    0.59660   0.76372   0.40725   0.00000  Uiso   1.00
Pt183  Pt    0.40582   0.50113   0.21986   0.00000  Uiso   1.00
Pt184  Pt    0.68432   0.36613   0.31289   0.00000  Uiso   1.00
Pt185  Pt    0.77971   0.49742   0.40658   0.00000  Uiso   1.00
Pt186  Pt    0.59660   0.76372   0.59464   0.00000  Uiso   1.00
Pt187  Pt    0.31043   0.36984   0.31355   0.00000  Uiso   1.00
Pt188  Pt    0.68815   0.63057   0.31322   0.00000  Uiso   1.00
Pt189  Pt    0.59276   0.49928   0.21952   0.00000  Uiso   1.00
Pt190  Pt    0.40199   0.23669   0.40692   0.00000  Uiso   1.00
Pt191  Pt    0.68815   0.63057   0.68800   0.00000  Uiso   1.00
Pt192  Pt    0.40199   0.23669   0.59431   0.00000  Uiso   1.00
Pt193  Pt    0.59276   0.49928   0.78170   0.00000  Uiso   1.00
Pt194  Pt    0.31043   0.36984   0.68834   0.00000  Uiso   1.00
Pt195  Pt    0.40582   0.50113   0.78203   0.00000  Uiso   1.00
Pt196  Pt    0.21732   0.50483   0.59398   0.00000  Uiso   1.00
Pt197  Pt    0.31271   0.63612   0.68767   0.00000  Uiso   1.00
Pt198  Pt    0.21732   0.50483   0.40658   0.00000  Uiso   1.00
Pt199  Pt    0.40810   0.76741   0.59398   0.00000  Uiso   1.00
Pt200  Pt    0.31271   0.63612   0.31289   0.00000  Uiso   1.00
Pt201  Pt    0.40810   0.76741   0.40658   0.00000  Uiso   1.00
Pt202  Pt    0.54212   0.30204   0.73485   0.00000  Uiso   1.00
Pt203  Pt    0.50121   0.63243   0.78137   0.00000  Uiso   1.00
Pt204  Pt    0.26307   0.30466   0.54746   0.00000  Uiso   1.00
Pt205  Pt    0.26805   0.70224   0.54746   0.00000  Uiso   1.00
Pt206  Pt    0.22002   0.63613   0.50028   0.00000  Uiso   1.00
Pt207  Pt    0.73585   0.69622   0.45376   0.00000  Uiso   1.00
Pt208  Pt    0.49738   0.36798   0.21952   0.00000  Uiso   1.00
Pt209  Pt    0.73585   0.69622   0.54746   0.00000  Uiso   1.00
Pt210  Pt    0.44968   0.30234   0.26637   0.00000  Uiso   1.00
Pt211  Pt    0.49738   0.36798   0.78170   0.00000  Uiso   1.00
Pt212  Pt    0.44968   0.30234   0.73485   0.00000  Uiso   1.00
Pt213  Pt    0.45466   0.69992   0.26637   0.00000  Uiso   1.00
Pt214  Pt    0.21618   0.37169   0.50061   0.00000  Uiso   1.00
Pt215  Pt    0.45466   0.69992   0.73485   0.00000  Uiso   1.00
Pt216  Pt    0.54924   0.69854   0.26637   0.00000  Uiso   1.00
Pt217  Pt    0.50121   0.63243   0.21919   0.00000  Uiso   1.00
Pt218  Pt    0.73087   0.29864   0.45376   0.00000  Uiso   1.00
Pt219  Pt    0.77857   0.36428   0.50061   0.00000  Uiso   1.00
Pt220  Pt    0.73087   0.29864   0.54746   0.00000  Uiso   1.00
Pt221  Pt    0.78240   0.62872   0.50028   0.00000  Uiso   1.00
Pt222  Pt    0.54427   0.30096   0.26637   0.00000  Uiso   1.00
Pt223  Pt    0.26093   0.30575   0.45376   0.00000  Uiso   1.00
Pt224  Pt    0.54709   0.69962   0.73485   0.00000  Uiso   1.00
Pt225  Pt    0.26590   0.70333   0.45376   0.00000  Uiso   1.00
Pt226  Pt    0.31540   0.76742   0.50094   0.00000  Uiso   1.00
Pt227  Pt    0.22002   0.63613   0.40725   0.00000  Uiso   1.00
Pt228  Pt    0.22002   0.63613   0.59464   0.00000  Uiso   1.00
Pt229  Pt    0.40313   0.36983   0.78137   0.00000  Uiso   1.00
Pt230  Pt    0.30774   0.23854   0.50028   0.00000  Uiso   1.00
Au1    Au    0.59391   0.63242   0.78137   0.00000  Uiso   1.00
Au2    Au    0.50235   0.76556   0.31322   0.00000  Uiso   1.00
Au3    Au    0.40696   0.63427   0.21952   0.00000  Uiso   1.00
Au4    Au    0.21618   0.37169   0.40692   0.00000  Uiso   1.00
Au5    Au    0.50235   0.76556   0.68800   0.00000  Uiso   1.00
Au6    Au    0.21618   0.37169   0.59431   0.00000  Uiso   1.00
Au7    Au    0.40696   0.63427   0.78170   0.00000  Uiso   1.00
Au8    Au    0.78240   0.62872   0.40725   0.00000  Uiso   1.00
Au9    Au    0.59162   0.36614   0.21986   0.00000  Uiso   1.00
Au10   Au    0.68930   0.76371   0.50028   0.00000  Uiso   1.00
Au11   Au    0.40313   0.36983   0.21919   0.00000  Uiso   1.00
Au12   Au    0.77857   0.36428   0.40692   0.00000  Uiso   1.00
Au13   Au    0.68318   0.23299   0.50061   0.00000  Uiso   1.00
Au14   Au    0.77857   0.36428   0.59431   0.00000  Uiso   1.00
Au15   Au    0.78240   0.62872   0.59464   0.00000  Uiso   1.00
Au16   Au    0.49623   0.23485   0.31355   0.00000  Uiso   1.00
Au17   Au    0.59391   0.63242   0.21919   0.00000  Uiso   1.00
Au18   Au    0.49623   0.23485   0.68834   0.00000  Uiso   1.00
Au19   Au    0.59162   0.36614   0.78203   0.00000  Uiso   1.00
