data_con6.63_1nm_CS_full
_audit_creation_date              2024-08-19
_audit_creation_method            'Materials Studio'
_symmetry_space_group_name_H-M    'P1'
_symmetry_Int_Tables_number       1
_symmetry_cell_setting            triclinic
loop_
_symmetry_equiv_pos_as_xyz
  x,y,z
_cell_length_a                    30.0000
_cell_length_b                    30.0000
_cell_length_c                    30.0000
_cell_angle_alpha                 90.0000
_cell_angle_beta                  90.0000
_cell_angle_gamma                 90.0000
loop_
_atom_site_label
_atom_site_type_symbol
_atom_site_fract_x
_atom_site_fract_y
_atom_site_fract_z
_atom_site_U_iso_or_equiv
_atom_site_adp_type
_atom_site_occupancy
Co1    Co    0.49712   0.49901   0.49573   0.00000  Uiso   1.00
Co2    Co    0.49712   0.49631   0.41486   0.00000  Uiso   1.00
Co3    Co    0.45504   0.55602   0.45667   0.00000  Uiso   1.00
Co4    Co    0.57843   0.49901   0.49573   0.00000  Uiso   1.00
Co5    Co    0.53778   0.55669   0.53611   0.00000  Uiso   1.00
Co6    Co    0.49641   0.49840   0.57916   0.00000  Uiso   1.00
Co7    Co    0.53778   0.43971   0.53806   0.00000  Uiso   1.00
Co8    Co    0.45504   0.43971   0.53806   0.00000  Uiso   1.00
Co9    Co    0.53778   0.55623   0.45493   0.00000  Uiso   1.00
Co10   Co    0.45504   0.55648   0.53785   0.00000  Uiso   1.00
Co11   Co    0.53778   0.43910   0.45566   0.00000  Uiso   1.00
Co12   Co    0.45504   0.43931   0.45392   0.00000  Uiso   1.00
Co13   Co    0.41296   0.49901   0.49573   0.00000  Uiso   1.00
Co14   Co    0.49570   0.61370   0.49706   0.00000  Uiso   1.00
Co15   Co    0.57843   0.49631   0.41486   0.00000  Uiso   1.00
Co16   Co    0.41296   0.49631   0.41486   0.00000  Uiso   1.00
Co17   Co    0.41368   0.49840   0.57916   0.00000  Uiso   1.00
Co18   Co    0.49641   0.38102   0.49696   0.00000  Uiso   1.00
Co19   Co    0.57915   0.49840   0.57916   0.00000  Uiso   1.00
Co20   Co    0.41439   0.61370   0.49706   0.00000  Uiso   1.00
Co21   Co    0.53778   0.43863   0.37447   0.00000  Uiso   1.00
Co22   Co    0.57986   0.61370   0.49706   0.00000  Uiso   1.00
Co23   Co    0.62051   0.55602   0.45667   0.00000  Uiso   1.00
Co24   Co    0.53778   0.44033   0.62046   0.00000  Uiso   1.00
Co25   Co    0.49570   0.38163   0.41353   0.00000  Uiso   1.00
Co26   Co    0.37231   0.55669   0.53611   0.00000  Uiso   1.00
Co27   Co    0.49641   0.61431   0.41363   0.00000  Uiso   1.00
Co28   Co    0.53778   0.55562   0.37253   0.00000  Uiso   1.00
Co29   Co    0.45504   0.55562   0.37253   0.00000  Uiso   1.00
Co30   Co    0.62051   0.43971   0.53806   0.00000  Uiso   1.00
Co31   Co    0.45504   0.55710   0.62025   0.00000  Uiso   1.00
Co32   Co    0.37231   0.43971   0.53806   0.00000  Uiso   1.00
Co33   Co    0.57915   0.38102   0.49696   0.00000  Uiso   1.00
Co34   Co    0.41368   0.38102   0.49696   0.00000  Uiso   1.00
Co35   Co    0.53778   0.55710   0.62025   0.00000  Uiso   1.00
Co36   Co    0.37231   0.55623   0.45493   0.00000  Uiso   1.00
Co37   Co    0.45504   0.43885   0.37273   0.00000  Uiso   1.00
Co38   Co    0.37231   0.43910   0.45566   0.00000  Uiso   1.00
Co39   Co    0.62051   0.55648   0.53785   0.00000  Uiso   1.00
Co40   Co    0.62051   0.43931   0.45392   0.00000  Uiso   1.00
Co41   Co    0.49570   0.61640   0.57792   0.00000  Uiso   1.00
Co42   Co    0.45504   0.44011   0.62220   0.00000  Uiso   1.00
Co43   Co    0.49712   0.38041   0.58039   0.00000  Uiso   1.00
Co44   Co    0.41439   0.38163   0.41353   0.00000  Uiso   1.00
Co45   Co    0.33165   0.49901   0.49573   0.00000  Uiso   1.00
Co46   Co    0.41368   0.61431   0.41363   0.00000  Uiso   1.00
Co47   Co    0.49641   0.49692   0.33143   0.00000  Uiso   1.00
Co48   Co    0.57915   0.61431   0.41363   0.00000  Uiso   1.00
Co49   Co    0.57986   0.38163   0.41353   0.00000  Uiso   1.00
Co50   Co    0.41439   0.61640   0.57792   0.00000  Uiso   1.00
Co51   Co    0.49570   0.49779   0.66259   0.00000  Uiso   1.00
Co52   Co    0.57843   0.38041   0.58039   0.00000  Uiso   1.00
Co53   Co    0.66259   0.49901   0.49573   0.00000  Uiso   1.00
Co54   Co    0.57986   0.61640   0.57792   0.00000  Uiso   1.00
Co55   Co    0.41296   0.38041   0.58039   0.00000  Uiso   1.00
Co56   Co    0.33165   0.49631   0.41486   0.00000  Uiso   1.00
Co57   Co    0.37231   0.43863   0.37447   0.00000  Uiso   1.00
Co58   Co    0.37231   0.44033   0.62046   0.00000  Uiso   1.00
Co59   Co    0.45504   0.32294   0.53827   0.00000  Uiso   1.00
Co60   Co    0.62051   0.55562   0.37253   0.00000  Uiso   1.00
Co61   Co    0.45504   0.67300   0.45472   0.00000  Uiso   1.00
Co62   Co    0.37231   0.55562   0.37253   0.00000  Uiso   1.00
Co63   Co    0.57915   0.49692   0.33143   0.00000  Uiso   1.00
Co64   Co    0.41368   0.49692   0.33143   0.00000  Uiso   1.00
Co65   Co    0.53778   0.67300   0.45472   0.00000  Uiso   1.00
Co66   Co    0.53778   0.32232   0.45587   0.00000  Uiso   1.00
Co67   Co    0.66188   0.49840   0.57916   0.00000  Uiso   1.00
Co68   Co    0.62051   0.55710   0.62025   0.00000  Uiso   1.00
Co69   Co    0.33094   0.49840   0.57916   0.00000  Uiso   1.00
Co70   Co    0.45504   0.32232   0.45587   0.00000  Uiso   1.00
Co71   Co    0.37231   0.55710   0.62025   0.00000  Uiso   1.00
Co72   Co    0.45504   0.67362   0.53712   0.00000  Uiso   1.00
Co73   Co    0.62051   0.43885   0.37273   0.00000  Uiso   1.00
Co74   Co    0.53778   0.32273   0.54001   0.00000  Uiso   1.00
Co75   Co    0.41439   0.49779   0.66259   0.00000  Uiso   1.00
Co76   Co    0.53778   0.67341   0.53886   0.00000  Uiso   1.00
Co77   Co    0.66259   0.49631   0.41486   0.00000  Uiso   1.00
Co78   Co    0.62051   0.44011   0.62220   0.00000  Uiso   1.00
Co79   Co    0.57986   0.49779   0.66259   0.00000  Uiso   1.00
Co80   Co    0.49712   0.38311   0.66126   0.00000  Uiso   1.00
Co81   Co    0.66117   0.61370   0.49706   0.00000  Uiso   1.00
Co82   Co    0.33023   0.61370   0.49706   0.00000  Uiso   1.00
Co83   Co    0.49570   0.37893   0.33267   0.00000  Uiso   1.00
Co84   Co    0.33094   0.38102   0.49696   0.00000  Uiso   1.00
Co85   Co    0.49641   0.61579   0.66135   0.00000  Uiso   1.00
Co86   Co    0.66188   0.38102   0.49696   0.00000  Uiso   1.00
Co87   Co    0.49712   0.61492   0.33019   0.00000  Uiso   1.00
Co88   Co    0.57843   0.38311   0.66126   0.00000  Uiso   1.00
Co89   Co    0.53778   0.44079   0.70165   0.00000  Uiso   1.00
Co90   Co    0.45504   0.32340   0.61945   0.00000  Uiso   1.00
Co91   Co    0.41296   0.38311   0.66126   0.00000  Uiso   1.00
Co92   Co    0.66117   0.38163   0.41353   0.00000  Uiso   1.00
Co93   Co    0.45504   0.67408   0.61831   0.00000  Uiso   1.00
Co94   Co    0.45504   0.67239   0.37232   0.00000  Uiso   1.00
Co95   Co    0.53778   0.55500   0.29013   0.00000  Uiso   1.00
Co96   Co    0.28957   0.55602   0.45667   0.00000  Uiso   1.00
Co97   Co    0.41439   0.37893   0.33267   0.00000  Uiso   1.00
Co98   Co    0.45504   0.55771   0.70266   0.00000  Uiso   1.00
Co99   Co    0.62051   0.32294   0.53827   0.00000  Uiso   1.00
Co100  Co    0.45504   0.44058   0.70338   0.00000  Uiso   1.00
Co101  Co    0.53778   0.32319   0.62119   0.00000  Uiso   1.00
Co102  Co    0.66117   0.61640   0.57792   0.00000  Uiso   1.00
Co103  Co    0.70325   0.55669   0.53611   0.00000  Uiso   1.00
Co104  Co    0.53778   0.43823   0.29033   0.00000  Uiso   1.00
Co105  Co    0.66188   0.61431   0.41363   0.00000  Uiso   1.00
Co106  Co    0.62051   0.67300   0.45472   0.00000  Uiso   1.00
Co107  Co    0.33094   0.61431   0.41363   0.00000  Uiso   1.00
Co108  Co    0.45504   0.43823   0.29033   0.00000  Uiso   1.00
Co109  Co    0.37231   0.67300   0.45472   0.00000  Uiso   1.00
Co110  Co    0.37231   0.32232   0.45587   0.00000  Uiso   1.00
Co111  Co    0.57915   0.61579   0.66135   0.00000  Uiso   1.00
Co112  Co    0.41368   0.61579   0.66135   0.00000  Uiso   1.00
Co113  Co    0.62051   0.32232   0.45587   0.00000  Uiso   1.00
Co114  Co    0.70325   0.43971   0.53806   0.00000  Uiso   1.00
Co115  Co    0.28957   0.43971   0.53806   0.00000  Uiso   1.00
Co116  Co    0.62051   0.67362   0.53712   0.00000  Uiso   1.00
Co117  Co    0.70325   0.55623   0.45493   0.00000  Uiso   1.00
Co118  Co    0.28957   0.55648   0.53785   0.00000  Uiso   1.00
Co119  Co    0.53778   0.67387   0.62005   0.00000  Uiso   1.00
Co120  Co    0.45504   0.32171   0.37346   0.00000  Uiso   1.00
Co121  Co    0.70325   0.43910   0.45566   0.00000  Uiso   1.00
Co122  Co    0.37231   0.32273   0.54001   0.00000  Uiso   1.00
Co123  Co    0.33165   0.38041   0.58039   0.00000  Uiso   1.00
Co124  Co    0.37231   0.67341   0.53886   0.00000  Uiso   1.00
Co125  Co    0.57986   0.37893   0.33267   0.00000  Uiso   1.00
Co126  Co    0.28957   0.43931   0.45392   0.00000  Uiso   1.00
Co127  Co    0.33023   0.38163   0.41353   0.00000  Uiso   1.00
Co128  Co    0.57843   0.61492   0.33019   0.00000  Uiso   1.00
Co129  Co    0.53778   0.67260   0.37058   0.00000  Uiso   1.00
Co130  Co    0.53778   0.32192   0.37172   0.00000  Uiso   1.00
Co131  Co    0.33023   0.61640   0.57792   0.00000  Uiso   1.00
Co132  Co    0.45504   0.55521   0.28839   0.00000  Uiso   1.00
Co133  Co    0.41296   0.61492   0.33019   0.00000  Uiso   1.00
Co134  Co    0.53778   0.55750   0.70439   0.00000  Uiso   1.00
Co135  Co    0.66259   0.38041   0.58039   0.00000  Uiso   1.00
Co136  Co    0.33094   0.49692   0.33143   0.00000  Uiso   1.00
Co137  Co    0.49641   0.73170   0.49582   0.00000  Uiso   1.00
Co138  Co    0.66188   0.49692   0.33143   0.00000  Uiso   1.00
Co139  Co    0.66117   0.49779   0.66259   0.00000  Uiso   1.00
Co140  Co    0.33023   0.49779   0.66259   0.00000  Uiso   1.00
Co141  Co    0.49570   0.26302   0.49820   0.00000  Uiso   1.00
Co142  Co    0.49570   0.26572   0.57906   0.00000  Uiso   1.00
Co143  Co    0.37231   0.44079   0.70165   0.00000  Uiso   1.00
Co144  Co    0.62051   0.32340   0.61945   0.00000  Uiso   1.00
Co145  Co    0.49570   0.50049   0.74345   0.00000  Uiso   1.00
Co146  Co    0.49712   0.73109   0.57925   0.00000  Uiso   1.00
Co147  Co    0.70325   0.43863   0.37447   0.00000  Uiso   1.00
Co148  Co    0.74390   0.49901   0.49573   0.00000  Uiso   1.00
Co149  Co    0.62051   0.67408   0.61831   0.00000  Uiso   1.00
Co150  Co    0.37231   0.55500   0.29013   0.00000  Uiso   1.00
Co151  Co    0.62051   0.67239   0.37232   0.00000  Uiso   1.00
Co152  Co    0.62051   0.55771   0.70266   0.00000  Uiso   1.00
Co153  Co    0.70325   0.44033   0.62046   0.00000  Uiso   1.00
Co154  Co    0.37231   0.32319   0.62119   0.00000  Uiso   1.00
Co155  Co    0.62051   0.44058   0.70338   0.00000  Uiso   1.00
Co156  Co    0.37231   0.43823   0.29033   0.00000  Uiso   1.00
Co157  Co    0.57915   0.73170   0.49582   0.00000  Uiso   1.00
Co158  Co    0.41368   0.73170   0.49582   0.00000  Uiso   1.00
Co159  Co    0.62051   0.43823   0.29033   0.00000  Uiso   1.00
Co160  Co    0.70325   0.55562   0.37253   0.00000  Uiso   1.00
Co161  Co    0.28957   0.55562   0.37253   0.00000  Uiso   1.00
Co162  Co    0.70325   0.55710   0.62025   0.00000  Uiso   1.00
Co163  Co    0.28957   0.55710   0.62025   0.00000  Uiso   1.00
Co164  Co    0.49641   0.26363   0.41477   0.00000  Uiso   1.00
Co165  Co    0.28957   0.43885   0.37273   0.00000  Uiso   1.00
Co166  Co    0.37231   0.67387   0.62005   0.00000  Uiso   1.00
Co167  Co    0.62051   0.32171   0.37346   0.00000  Uiso   1.00
Co168  Co    0.49570   0.49753   0.24800   0.00000  Uiso   1.00
Co169  Co    0.37231   0.67260   0.37058   0.00000  Uiso   1.00
Co170  Co    0.28957   0.44011   0.62220   0.00000  Uiso   1.00
Co171  Co    0.41439   0.26302   0.49820   0.00000  Uiso   1.00
Co172  Co    0.37231   0.32192   0.37172   0.00000  Uiso   1.00
Co173  Co    0.24749   0.49901   0.49573   0.00000  Uiso   1.00
Co174  Co    0.62051   0.55521   0.28839   0.00000  Uiso   1.00
Co175  Co    0.49570   0.73231   0.41239   0.00000  Uiso   1.00
Co176  Co    0.37231   0.55750   0.70439   0.00000  Uiso   1.00
Co177  Co    0.57986   0.26302   0.49820   0.00000  Uiso   1.00
Co178  Co    0.41439   0.26572   0.57906   0.00000  Uiso   1.00
Co179  Co    0.33165   0.38311   0.66126   0.00000  Uiso   1.00
Co180  Co    0.57986   0.26572   0.57906   0.00000  Uiso   1.00
Co181  Co    0.41439   0.50049   0.74345   0.00000  Uiso   1.00
Co182  Co    0.66259   0.38311   0.66126   0.00000  Uiso   1.00
Co183  Co    0.57986   0.50049   0.74345   0.00000  Uiso   1.00
Co184  Co    0.57843   0.73109   0.57925   0.00000  Uiso   1.00
Co185  Co    0.74390   0.49631   0.41486   0.00000  Uiso   1.00
Co186  Co    0.41296   0.73109   0.57925   0.00000  Uiso   1.00
Co187  Co    0.66117   0.37893   0.33267   0.00000  Uiso   1.00
Co188  Co    0.33094   0.61579   0.66135   0.00000  Uiso   1.00
Co189  Co    0.24820   0.49840   0.57916   0.00000  Uiso   1.00
Co190  Co    0.66188   0.61579   0.66135   0.00000  Uiso   1.00
Co191  Co    0.41368   0.26363   0.41477   0.00000  Uiso   1.00
Co192  Co    0.74462   0.49840   0.57916   0.00000  Uiso   1.00
Co193  Co    0.57915   0.26363   0.41477   0.00000  Uiso   1.00
Co194  Co    0.41439   0.49753   0.24800   0.00000  Uiso   1.00
Co195  Co    0.33165   0.61492   0.33019   0.00000  Uiso   1.00
Co196  Co    0.24749   0.49631   0.41486   0.00000  Uiso   1.00
Co197  Co    0.33023   0.37893   0.33267   0.00000  Uiso   1.00
Co198  Co    0.57986   0.49753   0.24800   0.00000  Uiso   1.00
Co199  Co    0.41439   0.73231   0.41239   0.00000  Uiso   1.00
Co200  Co    0.66259   0.61492   0.33019   0.00000  Uiso   1.00
Co201  Co    0.57986   0.73231   0.41239   0.00000  Uiso   1.00
Co202  Co    0.49712   0.61222   0.24933   0.00000  Uiso   1.00
Co203  Co    0.45504   0.67193   0.29114   0.00000  Uiso   1.00
Co204  Co    0.24892   0.61370   0.49706   0.00000  Uiso   1.00
Co205  Co    0.45504   0.32125   0.29228   0.00000  Uiso   1.00
Co206  Co    0.49641   0.38250   0.74469   0.00000  Uiso   1.00
Co207  Co    0.53778   0.32380   0.70359   0.00000  Uiso   1.00
Co208  Co    0.45504   0.32380   0.70359   0.00000  Uiso   1.00
Co209  Co    0.53778   0.67214   0.28940   0.00000  Uiso   1.00
Co210  Co    0.28957   0.32294   0.53827   0.00000  Uiso   1.00
Co211  Co    0.70325   0.67300   0.45472   0.00000  Uiso   1.00
Co212  Co    0.28957   0.67300   0.45472   0.00000  Uiso   1.00
Co213  Co    0.49641   0.37954   0.24924   0.00000  Uiso   1.00
Co214  Co    0.70325   0.32232   0.45587   0.00000  Uiso   1.00
Co215  Co    0.53778   0.67448   0.70245   0.00000  Uiso   1.00
Co216  Co    0.28957   0.32232   0.45587   0.00000  Uiso   1.00
Co217  Co    0.74462   0.38102   0.49696   0.00000  Uiso   1.00
Co218  Co    0.24820   0.38102   0.49696   0.00000  Uiso   1.00
Co219  Co    0.45504   0.67448   0.70245   0.00000  Uiso   1.00
Co220  Co    0.28957   0.67362   0.53712   0.00000  Uiso   1.00
Co221  Co    0.53778   0.32146   0.29054   0.00000  Uiso   1.00
Co222  Co    0.49712   0.61518   0.74478   0.00000  Uiso   1.00
Co223  Co    0.70325   0.32273   0.54001   0.00000  Uiso   1.00
Co224  Co    0.74533   0.61370   0.49706   0.00000  Uiso   1.00
Co225  Co    0.70325   0.67341   0.53886   0.00000  Uiso   1.00
Co226  Co    0.49570   0.72961   0.33153   0.00000  Uiso   1.00
Co227  Co    0.57843   0.61222   0.24933   0.00000  Uiso   1.00
Co228  Co    0.41296   0.61222   0.24933   0.00000  Uiso   1.00
Co229  Co    0.24892   0.38163   0.41353   0.00000  Uiso   1.00
Co230  Co    0.41368   0.38250   0.74469   0.00000  Uiso   1.00
Co231  Co    0.49641   0.26511   0.66249   0.00000  Uiso   1.00
Co232  Co    0.57915   0.38250   0.74469   0.00000  Uiso   1.00
Co233  Co    0.49712   0.26424   0.33134   0.00000  Uiso   1.00
Co234  Co    0.24892   0.61640   0.57792   0.00000  Uiso   1.00
Co235  Co    0.33094   0.73170   0.49582   0.00000  Uiso   1.00
Co236  Co    0.24820   0.61431   0.41363   0.00000  Uiso   1.00
Co237  Co    0.66188   0.73170   0.49582   0.00000  Uiso   1.00
Co238  Co    0.41368   0.37954   0.24924   0.00000  Uiso   1.00
Co239  Co    0.74462   0.61431   0.41363   0.00000  Uiso   1.00
Co240  Co    0.57915   0.37954   0.24924   0.00000  Uiso   1.00
Co241  Co    0.57843   0.61518   0.74478   0.00000  Uiso   1.00
Co242  Co    0.74390   0.38041   0.58039   0.00000  Uiso   1.00
Co243  Co    0.41296   0.61518   0.74478   0.00000  Uiso   1.00
Co244  Co    0.66117   0.26302   0.49820   0.00000  Uiso   1.00
Co245  Co    0.74533   0.38163   0.41353   0.00000  Uiso   1.00
Co246  Co    0.49712   0.73378   0.66011   0.00000  Uiso   1.00
Co247  Co    0.74533   0.61640   0.57792   0.00000  Uiso   1.00
Co248  Co    0.24749   0.38041   0.58039   0.00000  Uiso   1.00
Co249  Co    0.33023   0.26302   0.49820   0.00000  Uiso   1.00
Co250  Co    0.41439   0.72961   0.33153   0.00000  Uiso   1.00
Co251  Co    0.53778   0.55454   0.20894   0.00000  Uiso   1.00
Co252  Co    0.66117   0.26572   0.57906   0.00000  Uiso   1.00
Co253  Co    0.45504   0.55817   0.78384   0.00000  Uiso   1.00
Co254  Co    0.57986   0.72961   0.33153   0.00000  Uiso   1.00
Co255  Co    0.62051   0.67193   0.29114   0.00000  Uiso   1.00
Co256  Co    0.66117   0.50049   0.74345   0.00000  Uiso   1.00
Co257  Co    0.70325   0.44079   0.70165   0.00000  Uiso   1.00
Co258  Co    0.28957   0.32340   0.61945   0.00000  Uiso   1.00
Co259  Co    0.33023   0.26572   0.57906   0.00000  Uiso   1.00
Co260  Co    0.33165   0.73109   0.57925   0.00000  Uiso   1.00
Co261  Co    0.62051   0.32125   0.29228   0.00000  Uiso   1.00
Co262  Co    0.53778   0.20601   0.53726   0.00000  Uiso   1.00
Co263  Co    0.33023   0.50049   0.74345   0.00000  Uiso   1.00
Co264  Co    0.62051   0.32380   0.70359   0.00000  Uiso   1.00
Co265  Co    0.45504   0.44119   0.78579   0.00000  Uiso   1.00
Co266  Co    0.37231   0.32380   0.70359   0.00000  Uiso   1.00
Co267  Co    0.57915   0.26511   0.66249   0.00000  Uiso   1.00
Co268  Co    0.41368   0.26511   0.66249   0.00000  Uiso   1.00
Co269  Co    0.53778   0.44119   0.78579   0.00000  Uiso   1.00
Co270  Co    0.57843   0.26424   0.33134   0.00000  Uiso   1.00
Co271  Co    0.28957   0.67408   0.61831   0.00000  Uiso   1.00
Co272  Co    0.28957   0.67239   0.37232   0.00000  Uiso   1.00
Co273  Co    0.53778   0.78977   0.45452   0.00000  Uiso   1.00
Co274  Co    0.45504   0.43762   0.20793   0.00000  Uiso   1.00
Co275  Co    0.70325   0.55500   0.29013   0.00000  Uiso   1.00
Co276  Co    0.37231   0.67214   0.28940   0.00000  Uiso   1.00
Co277  Co    0.45504   0.55475   0.20720   0.00000  Uiso   1.00
Co278  Co    0.45504   0.20534   0.45781   0.00000  Uiso   1.00
Co279  Co    0.24892   0.49779   0.66259   0.00000  Uiso   1.00
Co280  Co    0.66259   0.73109   0.57925   0.00000  Uiso   1.00
Co281  Co    0.78598   0.55602   0.45667   0.00000  Uiso   1.00
Co282  Co    0.28957   0.55771   0.70266   0.00000  Uiso   1.00
Co283  Co    0.53778   0.20555   0.45607   0.00000  Uiso   1.00
Co284  Co    0.28957   0.44058   0.70338   0.00000  Uiso   1.00
Co285  Co    0.53778   0.55796   0.78558   0.00000  Uiso   1.00
Co286  Co    0.45504   0.20580   0.53900   0.00000  Uiso   1.00
Co287  Co    0.70325   0.32319   0.62119   0.00000  Uiso   1.00
Co288  Co    0.20684   0.55669   0.53611   0.00000  Uiso   1.00
Co289  Co    0.41296   0.26424   0.33134   0.00000  Uiso   1.00
Co290  Co    0.70325   0.43823   0.29033   0.00000  Uiso   1.00
Co291  Co    0.53778   0.79039   0.53692   0.00000  Uiso   1.00
Co292  Co    0.28957   0.43823   0.29033   0.00000  Uiso   1.00
Co293  Co    0.74462   0.49692   0.33143   0.00000  Uiso   1.00
Co294  Co    0.24820   0.49692   0.33143   0.00000  Uiso   1.00
Co295  Co    0.45504   0.79039   0.53692   0.00000  Uiso   1.00
Co296  Co    0.66117   0.49753   0.24800   0.00000  Uiso   1.00
Co297  Co    0.45504   0.78999   0.45278   0.00000  Uiso   1.00
Co298  Co    0.78598   0.43971   0.53806   0.00000  Uiso   1.00
Co299  Co    0.20684   0.43971   0.53806   0.00000  Uiso   1.00
Co300  Co    0.37231   0.67448   0.70245   0.00000  Uiso   1.00
Co301  Co    0.66188   0.26363   0.41477   0.00000  Uiso   1.00
Co302  Co    0.33094   0.26363   0.41477   0.00000  Uiso   1.00
Co303  Co    0.62051   0.67448   0.70245   0.00000  Uiso   1.00
Co304  Co    0.20684   0.55623   0.45493   0.00000  Uiso   1.00
Co305  Co    0.37231   0.32146   0.29054   0.00000  Uiso   1.00
Co306  Co    0.20684   0.43910   0.45566   0.00000  Uiso   1.00
Co307  Co    0.28957   0.32171   0.37346   0.00000  Uiso   1.00
Co308  Co    0.70325   0.67387   0.62005   0.00000  Uiso   1.00
Co309  Co    0.78598   0.55648   0.53785   0.00000  Uiso   1.00
Co310  Co    0.57843   0.73378   0.66011   0.00000  Uiso   1.00
Co311  Co    0.78598   0.43931   0.45392   0.00000  Uiso   1.00
Co312  Co    0.66117   0.73231   0.41239   0.00000  Uiso   1.00
Co313  Co    0.70325   0.67260   0.37058   0.00000  Uiso   1.00
Co314  Co    0.41296   0.73378   0.66011   0.00000  Uiso   1.00
Co315  Co    0.70325   0.32192   0.37172   0.00000  Uiso   1.00
Co316  Co    0.28957   0.55521   0.28839   0.00000  Uiso   1.00
Co317  Co    0.33023   0.49753   0.24800   0.00000  Uiso   1.00
Co318  Co    0.70325   0.55750   0.70439   0.00000  Uiso   1.00
Co319  Co    0.74533   0.49779   0.66259   0.00000  Uiso   1.00
Co320  Co    0.53778   0.43783   0.20619   0.00000  Uiso   1.00
Co321  Co    0.33023   0.73231   0.41239   0.00000  Uiso   1.00
Co322  Co    0.33165   0.61222   0.24933   0.00000  Uiso   1.00
Co323  Co    0.37231   0.55454   0.20894   0.00000  Uiso   1.00
Co324  Co    0.74390   0.38311   0.66126   0.00000  Uiso   1.00
Co325  Co    0.62051   0.55817   0.78384   0.00000  Uiso   1.00
Co326  Co    0.66259   0.61222   0.24933   0.00000  Uiso   1.00
Co327  Co    0.53778   0.78931   0.37333   0.00000  Uiso   1.00
Co328  Co    0.37231   0.20601   0.53726   0.00000  Uiso   1.00
Co329  Co    0.24749   0.38311   0.66126   0.00000  Uiso   1.00
Co330  Co    0.20684   0.43863   0.37447   0.00000  Uiso   1.00
Co331  Co    0.24892   0.37893   0.33267   0.00000  Uiso   1.00
Co332  Co    0.53778   0.20642   0.62140   0.00000  Uiso   1.00
Co333  Co    0.66188   0.38250   0.74469   0.00000  Uiso   1.00
Co334  Co    0.62051   0.44119   0.78579   0.00000  Uiso   1.00
Co335  Co    0.33094   0.38250   0.74469   0.00000  Uiso   1.00
Co336  Co    0.45504   0.20642   0.62140   0.00000  Uiso   1.00
Co337  Co    0.37231   0.44119   0.78579   0.00000  Uiso   1.00
Co338  Co    0.37231   0.78977   0.45452   0.00000  Uiso   1.00
Co339  Co    0.62051   0.43762   0.20793   0.00000  Uiso   1.00
Co340  Co    0.45504   0.78952   0.37159   0.00000  Uiso   1.00
Co341  Co    0.62051   0.55475   0.20720   0.00000  Uiso   1.00
Co342  Co    0.33165   0.61518   0.74478   0.00000  Uiso   1.00
Co343  Co    0.62051   0.20534   0.45781   0.00000  Uiso   1.00
Co344  Co    0.20684   0.44033   0.62046   0.00000  Uiso   1.00
Co345  Co    0.37231   0.20555   0.45607   0.00000  Uiso   1.00
Co346  Co    0.37231   0.55796   0.78558   0.00000  Uiso   1.00
Co347  Co    0.62051   0.20580   0.53900   0.00000  Uiso   1.00
Co348  Co    0.78598   0.55562   0.37253   0.00000  Uiso   1.00
Co349  Co    0.20684   0.55562   0.37253   0.00000  Uiso   1.00
Co350  Co    0.37231   0.79039   0.53692   0.00000  Uiso   1.00
Pt351  Pt    0.66188   0.37954   0.24924   0.00000  Uiso   1.00
Pt352  Pt    0.33094   0.37954   0.24924   0.00000  Uiso   1.00
Pt353  Pt    0.62051   0.79039   0.53692   0.00000  Uiso   1.00
Pt354  Pt    0.74390   0.61492   0.33019   0.00000  Uiso   1.00
Pt355  Pt    0.62051   0.78999   0.45278   0.00000  Uiso   1.00
Pt356  Pt    0.45504   0.20494   0.37367   0.00000  Uiso   1.00
Pt357  Pt    0.74462   0.61579   0.66135   0.00000  Uiso   1.00
Pt358  Pt    0.24820   0.61579   0.66135   0.00000  Uiso   1.00
Pt359  Pt    0.53778   0.20494   0.37367   0.00000  Uiso   1.00
Pt360  Pt    0.78598   0.55710   0.62025   0.00000  Uiso   1.00
Pt361  Pt    0.20684   0.55710   0.62025   0.00000  Uiso   1.00
Pt362  Pt    0.53778   0.79100   0.61932   0.00000  Uiso   1.00
Pt363  Pt    0.78598   0.43885   0.37273   0.00000  Uiso   1.00
Pt364  Pt    0.66259   0.61518   0.74478   0.00000  Uiso   1.00
Pt365  Pt    0.78598   0.44011   0.62220   0.00000  Uiso   1.00
Pt366  Pt    0.45504   0.79079   0.62106   0.00000  Uiso   1.00
Pt367  Pt    0.74533   0.37893   0.33267   0.00000  Uiso   1.00
Pt368  Pt    0.37231   0.43783   0.20619   0.00000  Uiso   1.00
Pt369  Pt    0.24749   0.61492   0.33019   0.00000  Uiso   1.00
Pt370  Pt    0.66117   0.72961   0.33153   0.00000  Uiso   1.00
Pt371  Pt    0.33023   0.72961   0.33153   0.00000  Uiso   1.00
Pt372  Pt    0.33165   0.26424   0.33134   0.00000  Uiso   1.00
Pt373  Pt    0.33094   0.26511   0.66249   0.00000  Uiso   1.00
Pt374  Pt    0.66188   0.26511   0.66249   0.00000  Uiso   1.00
Pt375  Pt    0.66259   0.26424   0.33134   0.00000  Uiso   1.00
Pt376  Pt    0.33165   0.73378   0.66011   0.00000  Uiso   1.00
Pt377  Pt    0.66259   0.73378   0.66011   0.00000  Uiso   1.00
