data_3D\Atomistic
_audit_creation_date              2024-08-19
_audit_creation_method            'Materials Studio'
_symmetry_space_group_name_H-M    'P1'
_symmetry_Int_Tables_number       1
_symmetry_cell_setting            triclinic
loop_
_symmetry_equiv_pos_as_xyz
  x,y,z
_cell_length_a                    30.0000
_cell_length_b                    30.0000
_cell_length_c                    30.0000
_cell_angle_alpha                 90.0000
_cell_angle_beta                  90.0000
_cell_angle_gamma                 90.0000
loop_
_atom_site_label
_atom_site_type_symbol
_atom_site_fract_x
_atom_site_fract_y
_atom_site_fract_z
_atom_site_U_iso_or_equiv
_atom_site_adp_type
_atom_site_occupancy
Pt1    Pt    0.50000   0.17633   0.43714   0.00000  Uiso   1.00
Pt2    Pt    0.24106   0.30580   0.43714   0.00000  Uiso   1.00
Pt3    Pt    0.30580   0.24106   0.43714   0.00000  Uiso   1.00
Pt4    Pt    0.30580   0.30580   0.37240   0.00000  Uiso   1.00
Pt5    Pt    0.37053   0.24106   0.37240   0.00000  Uiso   1.00
Pt6    Pt    0.37053   0.30580   0.30767   0.00000  Uiso   1.00
Pt7    Pt    0.37053   0.30580   0.43714   0.00000  Uiso   1.00
Pt8    Pt    0.43527   0.24106   0.30767   0.00000  Uiso   1.00
Pt9    Pt    0.43527   0.24106   0.43714   0.00000  Uiso   1.00
Pt10   Pt    0.43527   0.30580   0.24293   0.00000  Uiso   1.00
Pt11   Pt    0.43527   0.30580   0.37240   0.00000  Uiso   1.00
Pt12   Pt    0.50000   0.24106   0.37240   0.00000  Uiso   1.00
Pt13   Pt    0.50000   0.30580   0.30767   0.00000  Uiso   1.00
Pt14   Pt    0.50000   0.30580   0.43714   0.00000  Uiso   1.00
Pt15   Pt    0.56473   0.24106   0.30767   0.00000  Uiso   1.00
Pt16   Pt    0.56473   0.24106   0.43714   0.00000  Uiso   1.00
Pt17   Pt    0.56473   0.30580   0.24293   0.00000  Uiso   1.00
Pt18   Pt    0.56473   0.30580   0.37240   0.00000  Uiso   1.00
Pt19   Pt    0.62947   0.24106   0.37240   0.00000  Uiso   1.00
Pt20   Pt    0.62947   0.30580   0.30767   0.00000  Uiso   1.00
Pt21   Pt    0.62947   0.30580   0.43714   0.00000  Uiso   1.00
Pt22   Pt    0.69420   0.24106   0.43714   0.00000  Uiso   1.00
Pt23   Pt    0.69420   0.30580   0.37240   0.00000  Uiso   1.00
Pt24   Pt    0.75894   0.30580   0.43714   0.00000  Uiso   1.00
Pt25   Pt    0.24106   0.37053   0.37240   0.00000  Uiso   1.00
Pt26   Pt    0.24106   0.43527   0.30767   0.00000  Uiso   1.00
Pt27   Pt    0.24106   0.43527   0.43714   0.00000  Uiso   1.00
Pt28   Pt    0.30580   0.37053   0.30767   0.00000  Uiso   1.00
Pt29   Pt    0.30580   0.37053   0.43714   0.00000  Uiso   1.00
Pt30   Pt    0.30580   0.43527   0.24293   0.00000  Uiso   1.00
Pt31   Pt    0.30580   0.43527   0.37240   0.00000  Uiso   1.00
Pt32   Pt    0.37053   0.37053   0.24293   0.00000  Uiso   1.00
Pt33   Pt    0.37053   0.37053   0.37240   0.00000  Uiso   1.00
Pt34   Pt    0.37053   0.43527   0.30767   0.00000  Uiso   1.00
Pt35   Pt    0.37053   0.43527   0.43714   0.00000  Uiso   1.00
Pt36   Pt    0.43527   0.37053   0.30767   0.00000  Uiso   1.00
Pt37   Pt    0.43527   0.37053   0.43714   0.00000  Uiso   1.00
Pt38   Pt    0.43527   0.43527   0.24293   0.00000  Uiso   1.00
Pt39   Pt    0.43527   0.43527   0.37240   0.00000  Uiso   1.00
Pt40   Pt    0.50000   0.37053   0.24293   0.00000  Uiso   1.00
Pt41   Pt    0.50000   0.37053   0.37240   0.00000  Uiso   1.00
Pt42   Pt    0.50000   0.43527   0.30767   0.00000  Uiso   1.00
Pt43   Pt    0.50000   0.43527   0.43714   0.00000  Uiso   1.00
Pt44   Pt    0.56473   0.37053   0.30767   0.00000  Uiso   1.00
Pt45   Pt    0.56473   0.37053   0.43714   0.00000  Uiso   1.00
Pt46   Pt    0.56473   0.43527   0.24293   0.00000  Uiso   1.00
Pt47   Pt    0.56473   0.43527   0.37240   0.00000  Uiso   1.00
Co48   Co    0.50000   0.43527   0.17820   0.00000  Uiso   1.00
Pt49   Pt    0.62947   0.37053   0.24293   0.00000  Uiso   1.00
Pt50   Pt    0.62947   0.37053   0.37240   0.00000  Uiso   1.00
Pt51   Pt    0.62947   0.43527   0.30767   0.00000  Uiso   1.00
Pt52   Pt    0.62947   0.43527   0.43714   0.00000  Uiso   1.00
Pt53   Pt    0.69420   0.37053   0.30767   0.00000  Uiso   1.00
Pt54   Pt    0.69420   0.37053   0.43714   0.00000  Uiso   1.00
Pt55   Pt    0.69420   0.43527   0.24293   0.00000  Uiso   1.00
Pt56   Pt    0.69420   0.43527   0.37240   0.00000  Uiso   1.00
Pt57   Pt    0.75894   0.37053   0.37240   0.00000  Uiso   1.00
Pt58   Pt    0.75894   0.43527   0.30767   0.00000  Uiso   1.00
Pt59   Pt    0.75894   0.43527   0.43714   0.00000  Uiso   1.00
Pt60   Pt    0.17633   0.50000   0.43714   0.00000  Uiso   1.00
Pt61   Pt    0.24106   0.50000   0.37240   0.00000  Uiso   1.00
Pt62   Pt    0.24106   0.56473   0.30767   0.00000  Uiso   1.00
Pt63   Pt    0.24106   0.56473   0.43714   0.00000  Uiso   1.00
Pt64   Pt    0.30580   0.50000   0.30767   0.00000  Uiso   1.00
Pt65   Pt    0.30580   0.50000   0.43714   0.00000  Uiso   1.00
Pt66   Pt    0.30580   0.56473   0.24293   0.00000  Uiso   1.00
Pt67   Pt    0.30580   0.56473   0.37240   0.00000  Uiso   1.00
Pt68   Pt    0.37053   0.50000   0.24293   0.00000  Uiso   1.00
Pt69   Pt    0.37053   0.50000   0.37240   0.00000  Uiso   1.00
Pt70   Pt    0.37053   0.56473   0.30767   0.00000  Uiso   1.00
Pt71   Pt    0.37053   0.56473   0.43714   0.00000  Uiso   1.00
Pt72   Pt    0.43527   0.50000   0.17820   0.00000  Uiso   1.00
Pt73   Pt    0.43527   0.50000   0.30767   0.00000  Uiso   1.00
Pt74   Pt    0.43527   0.50000   0.43714   0.00000  Uiso   1.00
Pt75   Pt    0.43527   0.56473   0.24293   0.00000  Uiso   1.00
Pt76   Pt    0.43527   0.56473   0.37240   0.00000  Uiso   1.00
Pt77   Pt    0.50000   0.50000   0.24293   0.00000  Uiso   1.00
Pt78   Pt    0.50000   0.50000   0.37240   0.00000  Uiso   1.00
Pt79   Pt    0.50000   0.56473   0.30767   0.00000  Uiso   1.00
Pt80   Pt    0.50000   0.56473   0.43714   0.00000  Uiso   1.00
Pt81   Pt    0.56473   0.50000   0.17820   0.00000  Uiso   1.00
Pt82   Pt    0.56473   0.50000   0.30767   0.00000  Uiso   1.00
Pt83   Pt    0.56473   0.50000   0.43714   0.00000  Uiso   1.00
Pt84   Pt    0.56473   0.56473   0.24293   0.00000  Uiso   1.00
Pt85   Pt    0.56473   0.56473   0.37240   0.00000  Uiso   1.00
Co86   Co    0.50000   0.56473   0.17820   0.00000  Uiso   1.00
Pt87   Pt    0.62947   0.50000   0.24293   0.00000  Uiso   1.00
Pt88   Pt    0.62947   0.50000   0.37240   0.00000  Uiso   1.00
Pt89   Pt    0.62947   0.56473   0.30767   0.00000  Uiso   1.00
Pt90   Pt    0.62947   0.56473   0.43714   0.00000  Uiso   1.00
Pt91   Pt    0.69420   0.50000   0.30767   0.00000  Uiso   1.00
Pt92   Pt    0.69420   0.50000   0.43714   0.00000  Uiso   1.00
Pt93   Pt    0.69420   0.56473   0.24293   0.00000  Uiso   1.00
Pt94   Pt    0.69420   0.56473   0.37240   0.00000  Uiso   1.00
Pt95   Pt    0.75894   0.50000   0.37240   0.00000  Uiso   1.00
Pt96   Pt    0.75894   0.56473   0.30767   0.00000  Uiso   1.00
Pt97   Pt    0.75894   0.56473   0.43714   0.00000  Uiso   1.00
Pt98   Pt    0.82367   0.50000   0.43714   0.00000  Uiso   1.00
Pt99   Pt    0.24106   0.62947   0.37240   0.00000  Uiso   1.00
Pt100  Pt    0.24106   0.69420   0.43714   0.00000  Uiso   1.00
Pt101  Pt    0.30580   0.62947   0.30767   0.00000  Uiso   1.00
Pt102  Pt    0.30580   0.62947   0.43714   0.00000  Uiso   1.00
Pt103  Pt    0.30580   0.69420   0.37240   0.00000  Uiso   1.00
Pt104  Pt    0.37053   0.62947   0.24293   0.00000  Uiso   1.00
Pt105  Pt    0.37053   0.62947   0.37240   0.00000  Uiso   1.00
Pt106  Pt    0.37053   0.69420   0.30767   0.00000  Uiso   1.00
Pt107  Pt    0.37053   0.69420   0.43714   0.00000  Uiso   1.00
Pt108  Pt    0.43527   0.62947   0.30767   0.00000  Uiso   1.00
Pt109  Pt    0.43527   0.62947   0.43714   0.00000  Uiso   1.00
Pt110  Pt    0.43527   0.69420   0.24293   0.00000  Uiso   1.00
Pt111  Pt    0.43527   0.69420   0.37240   0.00000  Uiso   1.00
Pt112  Pt    0.50000   0.62947   0.24293   0.00000  Uiso   1.00
Pt113  Pt    0.50000   0.62947   0.37240   0.00000  Uiso   1.00
Pt114  Pt    0.50000   0.69420   0.30767   0.00000  Uiso   1.00
Pt115  Pt    0.50000   0.69420   0.43714   0.00000  Uiso   1.00
Pt116  Pt    0.56473   0.62947   0.30767   0.00000  Uiso   1.00
Pt117  Pt    0.56473   0.62947   0.43714   0.00000  Uiso   1.00
Pt118  Pt    0.56473   0.69420   0.24293   0.00000  Uiso   1.00
Pt119  Pt    0.56473   0.69420   0.37240   0.00000  Uiso   1.00
Pt120  Pt    0.62947   0.62947   0.24293   0.00000  Uiso   1.00
Pt121  Pt    0.62947   0.62947   0.37240   0.00000  Uiso   1.00
Pt122  Pt    0.62947   0.69420   0.30767   0.00000  Uiso   1.00
Pt123  Pt    0.62947   0.69420   0.43714   0.00000  Uiso   1.00
Pt124  Pt    0.69420   0.62947   0.30767   0.00000  Uiso   1.00
Pt125  Pt    0.69420   0.62947   0.43714   0.00000  Uiso   1.00
Pt126  Pt    0.69420   0.69420   0.37240   0.00000  Uiso   1.00
Pt127  Pt    0.75894   0.62947   0.37240   0.00000  Uiso   1.00
Pt128  Pt    0.75894   0.69420   0.43714   0.00000  Uiso   1.00
Pt129  Pt    0.30580   0.75894   0.43714   0.00000  Uiso   1.00
Pt130  Pt    0.37053   0.75894   0.37240   0.00000  Uiso   1.00
Pt131  Pt    0.43527   0.75894   0.30767   0.00000  Uiso   1.00
Pt132  Pt    0.43527   0.75894   0.43714   0.00000  Uiso   1.00
Pt133  Pt    0.50000   0.75894   0.37240   0.00000  Uiso   1.00
Pt134  Pt    0.50000   0.82367   0.43714   0.00000  Uiso   1.00
Pt135  Pt    0.56473   0.75894   0.30767   0.00000  Uiso   1.00
Pt136  Pt    0.56473   0.75894   0.43714   0.00000  Uiso   1.00
Pt137  Pt    0.62947   0.75894   0.37240   0.00000  Uiso   1.00
Pt138  Pt    0.69420   0.75894   0.43714   0.00000  Uiso   1.00
Pt139  Pt    0.43527   0.17633   0.50187   0.00000  Uiso   1.00
Pt140  Pt    0.56473   0.17633   0.50187   0.00000  Uiso   1.00
Co141  Co    0.50000   0.17633   0.56661   0.00000  Uiso   1.00
Pt142  Pt    0.30580   0.24106   0.56661   0.00000  Uiso   1.00
Pt143  Pt    0.30580   0.30580   0.50187   0.00000  Uiso   1.00
Pt144  Pt    0.30580   0.30580   0.63134   0.00000  Uiso   1.00
Co145  Co    0.24106   0.30580   0.56661   0.00000  Uiso   1.00
Pt146  Pt    0.37053   0.24106   0.63134   0.00000  Uiso   1.00
Pt147  Pt    0.37053   0.30580   0.69608   0.00000  Uiso   1.00
Pt148  Pt    0.43527   0.24106   0.56661   0.00000  Uiso   1.00
Pt149  Pt    0.43527   0.24106   0.69608   0.00000  Uiso   1.00
Pt150  Pt    0.43527   0.30580   0.50187   0.00000  Uiso   1.00
Pt151  Pt    0.43527   0.30580   0.63134   0.00000  Uiso   1.00
Pt152  Pt    0.43527   0.30580   0.76081   0.00000  Uiso   1.00
Co153  Co    0.37053   0.24106   0.50187   0.00000  Uiso   1.00
Co154  Co    0.37053   0.30580   0.56661   0.00000  Uiso   1.00
Pt155  Pt    0.50000   0.24106   0.63134   0.00000  Uiso   1.00
Pt156  Pt    0.50000   0.30580   0.69608   0.00000  Uiso   1.00
Pt157  Pt    0.56473   0.24106   0.56661   0.00000  Uiso   1.00
Pt158  Pt    0.56473   0.24106   0.69608   0.00000  Uiso   1.00
Pt159  Pt    0.56473   0.30580   0.50187   0.00000  Uiso   1.00
Pt160  Pt    0.56473   0.30580   0.63134   0.00000  Uiso   1.00
Pt161  Pt    0.56473   0.30580   0.76081   0.00000  Uiso   1.00
Co162  Co    0.50000   0.24106   0.50187   0.00000  Uiso   1.00
Co163  Co    0.50000   0.30580   0.56661   0.00000  Uiso   1.00
Pt164  Pt    0.62947   0.24106   0.63134   0.00000  Uiso   1.00
Pt165  Pt    0.62947   0.30580   0.69608   0.00000  Uiso   1.00
Pt166  Pt    0.69420   0.24106   0.56661   0.00000  Uiso   1.00
Pt167  Pt    0.69420   0.30580   0.50187   0.00000  Uiso   1.00
Pt168  Pt    0.69420   0.30580   0.63134   0.00000  Uiso   1.00
Co169  Co    0.62947   0.24106   0.50187   0.00000  Uiso   1.00
Co170  Co    0.62947   0.30580   0.56661   0.00000  Uiso   1.00
Co171  Co    0.75894   0.30580   0.56661   0.00000  Uiso   1.00
Pt172  Pt    0.17633   0.43527   0.50187   0.00000  Uiso   1.00
Pt173  Pt    0.24106   0.37053   0.63134   0.00000  Uiso   1.00
Pt174  Pt    0.24106   0.43527   0.69608   0.00000  Uiso   1.00
Pt175  Pt    0.30580   0.37053   0.56661   0.00000  Uiso   1.00
Pt176  Pt    0.30580   0.37053   0.69608   0.00000  Uiso   1.00
Pt177  Pt    0.30580   0.43527   0.50187   0.00000  Uiso   1.00
Pt178  Pt    0.30580   0.43527   0.63134   0.00000  Uiso   1.00
Pt179  Pt    0.30580   0.43527   0.76081   0.00000  Uiso   1.00
Co180  Co    0.24106   0.37053   0.50187   0.00000  Uiso   1.00
Co181  Co    0.24106   0.43527   0.56661   0.00000  Uiso   1.00
Pt182  Pt    0.37053   0.37053   0.63134   0.00000  Uiso   1.00
Pt183  Pt    0.37053   0.37053   0.76081   0.00000  Uiso   1.00
Pt184  Pt    0.37053   0.43527   0.69608   0.00000  Uiso   1.00
Pt185  Pt    0.43527   0.37053   0.56661   0.00000  Uiso   1.00
Pt186  Pt    0.43527   0.37053   0.69608   0.00000  Uiso   1.00
Pt187  Pt    0.43527   0.43527   0.50187   0.00000  Uiso   1.00
Pt188  Pt    0.43527   0.43527   0.63134   0.00000  Uiso   1.00
Pt189  Pt    0.43527   0.43527   0.76081   0.00000  Uiso   1.00
Co190  Co    0.37053   0.37053   0.50187   0.00000  Uiso   1.00
Co191  Co    0.37053   0.43527   0.56661   0.00000  Uiso   1.00
Pt192  Pt    0.50000   0.37053   0.63134   0.00000  Uiso   1.00
Pt193  Pt    0.50000   0.37053   0.76081   0.00000  Uiso   1.00
Pt194  Pt    0.50000   0.43527   0.69608   0.00000  Uiso   1.00
Pt195  Pt    0.50000   0.43527   0.82555   0.00000  Uiso   1.00
Pt196  Pt    0.56473   0.37053   0.56661   0.00000  Uiso   1.00
Pt197  Pt    0.56473   0.37053   0.69608   0.00000  Uiso   1.00
Pt198  Pt    0.56473   0.43527   0.50187   0.00000  Uiso   1.00
Pt199  Pt    0.56473   0.43527   0.63134   0.00000  Uiso   1.00
Pt200  Pt    0.56473   0.43527   0.76081   0.00000  Uiso   1.00
Co201  Co    0.50000   0.37053   0.50187   0.00000  Uiso   1.00
Co202  Co    0.50000   0.43527   0.56661   0.00000  Uiso   1.00
Pt203  Pt    0.62947   0.37053   0.63134   0.00000  Uiso   1.00
Pt204  Pt    0.62947   0.37053   0.76081   0.00000  Uiso   1.00
Pt205  Pt    0.62947   0.43527   0.69608   0.00000  Uiso   1.00
Pt206  Pt    0.69420   0.37053   0.56661   0.00000  Uiso   1.00
Pt207  Pt    0.69420   0.37053   0.69608   0.00000  Uiso   1.00
Pt208  Pt    0.69420   0.43527   0.50187   0.00000  Uiso   1.00
Pt209  Pt    0.69420   0.43527   0.63134   0.00000  Uiso   1.00
Pt210  Pt    0.69420   0.43527   0.76081   0.00000  Uiso   1.00
Co211  Co    0.62947   0.37053   0.50187   0.00000  Uiso   1.00
Co212  Co    0.62947   0.43527   0.56661   0.00000  Uiso   1.00
Pt213  Pt    0.75894   0.37053   0.63134   0.00000  Uiso   1.00
Pt214  Pt    0.75894   0.43527   0.69608   0.00000  Uiso   1.00
Pt215  Pt    0.82367   0.43527   0.50187   0.00000  Uiso   1.00
Co216  Co    0.75894   0.37053   0.50187   0.00000  Uiso   1.00
Co217  Co    0.75894   0.43527   0.56661   0.00000  Uiso   1.00
Pt218  Pt    0.17633   0.50000   0.56661   0.00000  Uiso   1.00
Pt219  Pt    0.17633   0.56473   0.50187   0.00000  Uiso   1.00
Pt220  Pt    0.24106   0.50000   0.63134   0.00000  Uiso   1.00
Pt221  Pt    0.24106   0.56473   0.69608   0.00000  Uiso   1.00
Pt222  Pt    0.30580   0.50000   0.56661   0.00000  Uiso   1.00
Pt223  Pt    0.30580   0.50000   0.69608   0.00000  Uiso   1.00
Pt224  Pt    0.30580   0.56473   0.50187   0.00000  Uiso   1.00
Pt225  Pt    0.30580   0.56473   0.63134   0.00000  Uiso   1.00
Pt226  Pt    0.30580   0.56473   0.76081   0.00000  Uiso   1.00
Co227  Co    0.24106   0.50000   0.50187   0.00000  Uiso   1.00
Co228  Co    0.24106   0.56473   0.56661   0.00000  Uiso   1.00
Pt229  Pt    0.37053   0.50000   0.63134   0.00000  Uiso   1.00
Pt230  Pt    0.37053   0.50000   0.76081   0.00000  Uiso   1.00
Pt231  Pt    0.37053   0.56473   0.69608   0.00000  Uiso   1.00
Pt232  Pt    0.43527   0.50000   0.56661   0.00000  Uiso   1.00
Pt233  Pt    0.43527   0.50000   0.69608   0.00000  Uiso   1.00
Pt234  Pt    0.43527   0.50000   0.82555   0.00000  Uiso   1.00
Pt235  Pt    0.43527   0.56473   0.50187   0.00000  Uiso   1.00
Pt236  Pt    0.43527   0.56473   0.63134   0.00000  Uiso   1.00
Pt237  Pt    0.43527   0.56473   0.76081   0.00000  Uiso   1.00
Co238  Co    0.37053   0.50000   0.50187   0.00000  Uiso   1.00
Co239  Co    0.37053   0.56473   0.56661   0.00000  Uiso   1.00
Pt240  Pt    0.50000   0.50000   0.63134   0.00000  Uiso   1.00
Pt241  Pt    0.50000   0.50000   0.76081   0.00000  Uiso   1.00
Pt242  Pt    0.50000   0.56473   0.69608   0.00000  Uiso   1.00
Pt243  Pt    0.50000   0.56473   0.82555   0.00000  Uiso   1.00
Pt244  Pt    0.56473   0.50000   0.56661   0.00000  Uiso   1.00
Pt245  Pt    0.56473   0.50000   0.69608   0.00000  Uiso   1.00
Pt246  Pt    0.56473   0.50000   0.82555   0.00000  Uiso   1.00
Pt247  Pt    0.56473   0.56473   0.50187   0.00000  Uiso   1.00
Pt248  Pt    0.56473   0.56473   0.63134   0.00000  Uiso   1.00
Pt249  Pt    0.56473   0.56473   0.76081   0.00000  Uiso   1.00
Co250  Co    0.50000   0.50000   0.50187   0.00000  Uiso   1.00
Co251  Co    0.50000   0.56473   0.56661   0.00000  Uiso   1.00
Pt252  Pt    0.62947   0.50000   0.63134   0.00000  Uiso   1.00
Pt253  Pt    0.62947   0.50000   0.76081   0.00000  Uiso   1.00
Pt254  Pt    0.62947   0.56473   0.69608   0.00000  Uiso   1.00
Pt255  Pt    0.69420   0.50000   0.56661   0.00000  Uiso   1.00
Pt256  Pt    0.69420   0.50000   0.69608   0.00000  Uiso   1.00
Pt257  Pt    0.69420   0.56473   0.50187   0.00000  Uiso   1.00
Pt258  Pt    0.69420   0.56473   0.63134   0.00000  Uiso   1.00
Pt259  Pt    0.69420   0.56473   0.76081   0.00000  Uiso   1.00
Co260  Co    0.62947   0.50000   0.50187   0.00000  Uiso   1.00
Co261  Co    0.62947   0.56473   0.56661   0.00000  Uiso   1.00
Pt262  Pt    0.75894   0.50000   0.63134   0.00000  Uiso   1.00
Pt263  Pt    0.75894   0.56473   0.69608   0.00000  Uiso   1.00
Pt264  Pt    0.82367   0.50000   0.56661   0.00000  Uiso   1.00
Pt265  Pt    0.82367   0.56473   0.50187   0.00000  Uiso   1.00
Co266  Co    0.75894   0.50000   0.50187   0.00000  Uiso   1.00
Co267  Co    0.75894   0.56473   0.56661   0.00000  Uiso   1.00
Pt268  Pt    0.24106   0.62947   0.63134   0.00000  Uiso   1.00
Pt269  Pt    0.30580   0.62947   0.56661   0.00000  Uiso   1.00
Pt270  Pt    0.30580   0.62947   0.69608   0.00000  Uiso   1.00
Pt271  Pt    0.30580   0.69420   0.50187   0.00000  Uiso   1.00
Pt272  Pt    0.30580   0.69420   0.63134   0.00000  Uiso   1.00
Co273  Co    0.24106   0.62947   0.50187   0.00000  Uiso   1.00
Co274  Co    0.24106   0.69420   0.56661   0.00000  Uiso   1.00
Pt275  Pt    0.37053   0.62947   0.63134   0.00000  Uiso   1.00
Pt276  Pt    0.37053   0.62947   0.76081   0.00000  Uiso   1.00
Pt277  Pt    0.37053   0.69420   0.69608   0.00000  Uiso   1.00
Pt278  Pt    0.43527   0.62947   0.56661   0.00000  Uiso   1.00
Pt279  Pt    0.43527   0.62947   0.69608   0.00000  Uiso   1.00
Pt280  Pt    0.43527   0.69420   0.50187   0.00000  Uiso   1.00
Pt281  Pt    0.43527   0.69420   0.63134   0.00000  Uiso   1.00
Pt282  Pt    0.43527   0.69420   0.76081   0.00000  Uiso   1.00
Co283  Co    0.37053   0.62947   0.50187   0.00000  Uiso   1.00
Co284  Co    0.37053   0.69420   0.56661   0.00000  Uiso   1.00
Pt285  Pt    0.50000   0.62947   0.63134   0.00000  Uiso   1.00
Pt286  Pt    0.50000   0.62947   0.76081   0.00000  Uiso   1.00
Pt287  Pt    0.50000   0.69420   0.69608   0.00000  Uiso   1.00
Pt288  Pt    0.56473   0.62947   0.56661   0.00000  Uiso   1.00
Pt289  Pt    0.56473   0.62947   0.69608   0.00000  Uiso   1.00
Pt290  Pt    0.56473   0.69420   0.50187   0.00000  Uiso   1.00
Pt291  Pt    0.56473   0.69420   0.63134   0.00000  Uiso   1.00
Pt292  Pt    0.56473   0.69420   0.76081   0.00000  Uiso   1.00
Co293  Co    0.50000   0.62947   0.50187   0.00000  Uiso   1.00
Co294  Co    0.50000   0.69420   0.56661   0.00000  Uiso   1.00
Pt295  Pt    0.62947   0.62947   0.63134   0.00000  Uiso   1.00
Pt296  Pt    0.62947   0.62947   0.76081   0.00000  Uiso   1.00
Pt297  Pt    0.62947   0.69420   0.69608   0.00000  Uiso   1.00
Pt298  Pt    0.69420   0.62947   0.56661   0.00000  Uiso   1.00
Pt299  Pt    0.69420   0.62947   0.69608   0.00000  Uiso   1.00
Pt300  Pt    0.69420   0.69420   0.50187   0.00000  Uiso   1.00
Pt301  Pt    0.69420   0.69420   0.63134   0.00000  Uiso   1.00
Co302  Co    0.62947   0.62947   0.50187   0.00000  Uiso   1.00
Co303  Co    0.62947   0.69420   0.56661   0.00000  Uiso   1.00
Pt304  Pt    0.75894   0.62947   0.63134   0.00000  Uiso   1.00
Co305  Co    0.75894   0.62947   0.50187   0.00000  Uiso   1.00
Co306  Co    0.75894   0.69420   0.56661   0.00000  Uiso   1.00
Pt307  Pt    0.30580   0.75894   0.56661   0.00000  Uiso   1.00
Pt308  Pt    0.37053   0.75894   0.63134   0.00000  Uiso   1.00
Pt309  Pt    0.43527   0.75894   0.56661   0.00000  Uiso   1.00
Pt310  Pt    0.43527   0.75894   0.69608   0.00000  Uiso   1.00
Pt311  Pt    0.43527   0.82367   0.50187   0.00000  Uiso   1.00
Co312  Co    0.37053   0.75894   0.50187   0.00000  Uiso   1.00
Pt313  Pt    0.50000   0.75894   0.63134   0.00000  Uiso   1.00
Pt314  Pt    0.56473   0.75894   0.56661   0.00000  Uiso   1.00
Pt315  Pt    0.56473   0.75894   0.69608   0.00000  Uiso   1.00
Pt316  Pt    0.56473   0.82367   0.50187   0.00000  Uiso   1.00
Co317  Co    0.50000   0.75894   0.50187   0.00000  Uiso   1.00
Co318  Co    0.50000   0.82367   0.56661   0.00000  Uiso   1.00
Pt319  Pt    0.62947   0.75894   0.63134   0.00000  Uiso   1.00
Pt320  Pt    0.69420   0.75894   0.56661   0.00000  Uiso   1.00
Co321  Co    0.62947   0.75894   0.50187   0.00000  Uiso   1.00
