# generated using pymatgen
data_Ni285HPt84
_symmetry_space_group_name_H-M   'P 1'
_cell_length_a   30.00000000
_cell_length_b   30.00000000
_cell_length_c   30.00000000
_cell_angle_alpha   90.00000000
_cell_angle_beta   90.00000000
_cell_angle_gamma   90.00000000
_symmetry_Int_Tables_number   1
_chemical_formula_structural   Ni285HPt84
_chemical_formula_sum   'Ni285 H1 Pt84'
_cell_volume   27000.00000000
_cell_formula_units_Z   1
loop_
 _symmetry_equiv_pos_site_id
 _symmetry_equiv_pos_as_xyz
  1  'x, y, z'
loop_
 _atom_site_type_symbol
 _atom_site_label
 _atom_site_symmetry_multiplicity
 _atom_site_fract_x
 _atom_site_fract_y
 _atom_site_fract_z
 _atom_site_occupancy
  Ni  Ni0  1  0.50002421  0.50001326  0.50005242  1
  Ni  Ni1  1  0.49998837  0.56030107  0.56070173  1
  Ni  Ni2  1  0.56028715  0.50005692  0.56074800  1
  Ni  Ni3  1  0.50003016  0.43972621  0.56072819  1
  Ni  Ni4  1  0.43972528  0.50002659  0.56073069  1
  Ni  Ni5  1  0.49999311  0.56027929  0.43931467  1
  Ni  Ni6  1  0.56024836  0.50005745  0.43931476  1
  Ni  Ni7  1  0.50002162  0.43976547  0.43940614  1
  Ni  Ni8  1  0.43969972  0.50004340  0.43933743  1
  Ni  Ni9  1  0.62039206  0.50002321  0.50002852  1
  Ni  Ni10  1  0.49999680  0.62042315  0.50002049  1
  Ni  Ni11  1  0.50008784  0.37951667  0.49991996  1
  Ni  Ni12  1  0.37958713  0.50001069  0.50001390  1
  Ni  Ni13  1  0.43925964  0.56074191  0.37910276  1
  Ni  Ni14  1  0.56072273  0.56074409  0.37909993  1
  Ni  Ni15  1  0.56064119  0.43930087  0.37916216  1
  Ni  Ni16  1  0.43911721  0.43942430  0.37916166  1
  Ni  Ni17  1  0.43926576  0.56074034  0.62087281  1
  Ni  Ni18  1  0.56074218  0.56076735  0.62091651  1
  Ni  Ni19  1  0.56074240  0.43929499  0.62092421  1
  Ni  Ni20  1  0.43926927  0.43926965  0.62091501  1
  Ni  Ni21  1  0.37882082  0.56065053  0.56068211  1
  Ni  Ni22  1  0.56061307  0.37880018  0.56066250  1
  Ni  Ni23  1  0.43935638  0.62118958  0.56067308  1
  Ni  Ni24  1  0.62118536  0.56067207  0.56069234  1
  Ni  Ni25  1  0.56064973  0.62117386  0.56068965  1
  Ni  Ni26  1  0.62113604  0.43944174  0.56076152  1
  Ni  Ni27  1  0.43937461  0.37882768  0.56069164  1
  Ni  Ni28  1  0.37881427  0.43936646  0.56069163  1
  Ni  Ni29  1  0.37881919  0.56065889  0.43933111  1
  Ni  Ni30  1  0.62117525  0.56065600  0.43933444  1
  Ni  Ni31  1  0.56078415  0.37859852  0.43920247  1
  Ni  Ni32  1  0.56064193  0.62116876  0.43933390  1
  Ni  Ni33  1  0.43935695  0.62117552  0.43933466  1
  Ni  Ni34  1  0.62109924  0.43939545  0.43935474  1
  Ni  Ni35  1  0.43929233  0.37883076  0.43945444  1
  Ni  Ni36  1  0.37878383  0.43939412  0.43937493  1
  Ni  Ni37  1  0.62101890  0.37897774  0.50019771  1
  Ni  Ni38  1  0.62117701  0.62117315  0.50001986  1
  Ni  Ni39  1  0.37882469  0.62116565  0.49999399  1
  Ni  Ni40  1  0.37881436  0.37886432  0.50006212  1
  Ni  Ni41  1  0.49998268  0.56133430  0.68086165  1
  Ni  Ni42  1  0.56134712  0.50004248  0.68085685  1
  Ni  Ni43  1  0.50001166  0.43867807  0.68084016  1
  Ni  Ni44  1  0.43865749  0.50000859  0.68085328  1
  Ni  Ni45  1  0.56129929  0.50000548  0.31914765  1
  Ni  Ni46  1  0.50001135  0.56134027  0.31912837  1
  Ni  Ni47  1  0.49995877  0.43863911  0.31917650  1
  Ni  Ni48  1  0.43866318  0.50004381  0.31911727  1
  Ni  Ni49  1  0.50002775  0.31830119  0.56074148  1
  Ni  Ni50  1  0.31825164  0.50001871  0.56076570  1
  Ni  Ni51  1  0.50000093  0.68172416  0.56074038  1
  Ni  Ni52  1  0.68173297  0.50000226  0.56072702  1
  Ni  Ni53  1  0.50018831  0.31818203  0.43918680  1
  Ni  Ni54  1  0.31826979  0.50002790  0.43927326  1
  Ni  Ni55  1  0.49999570  0.68171868  0.43927658  1
  Ni  Ni56  1  0.68171563  0.50001850  0.43928956  1
  Ni  Ni57  1  0.37882291  0.56019560  0.68015717  1
  Ni  Ni58  1  0.43979177  0.62118947  0.68016722  1
  Ni  Ni59  1  0.56019291  0.62117777  0.68016305  1
  Ni  Ni60  1  0.56018407  0.37881498  0.68017852  1
  Ni  Ni61  1  0.62117364  0.56021438  0.68017121  1
  Ni  Ni62  1  0.62119877  0.43983527  0.68018397  1
  Ni  Ni63  1  0.37880925  0.43980799  0.68016288  1
  Ni  Ni64  1  0.43979906  0.37882950  0.68016589  1
  Ni  Ni65  1  0.56002617  0.37867085  0.32006105  1
  Ni  Ni66  1  0.37880358  0.56020270  0.31981047  1
  Ni  Ni67  1  0.56018623  0.62117538  0.31982953  1
  Ni  Ni68  1  0.43980732  0.62116872  0.31982586  1
  Ni  Ni69  1  0.62108965  0.43982423  0.31987858  1
  Ni  Ni70  1  0.62118068  0.56017860  0.31984136  1
  Ni  Ni71  1  0.43979596  0.37885483  0.31985003  1
  Ni  Ni72  1  0.37879626  0.43982692  0.31979817  1
  Ni  Ni73  1  0.56044161  0.31848822  0.37992680  1
  Ni  Ni74  1  0.31898428  0.55988340  0.37986917  1
  Ni  Ni75  1  0.43991729  0.31910309  0.37993403  1
  Ni  Ni76  1  0.31893305  0.44011561  0.37981456  1
  Ni  Ni77  1  0.31893692  0.55991612  0.62016556  1
  Ni  Ni78  1  0.55986085  0.31894711  0.62026096  1
  Ni  Ni79  1  0.68104077  0.55990776  0.37984122  1
  Ni  Ni80  1  0.68097502  0.44011093  0.37994535  1
  Ni  Ni81  1  0.44009905  0.68104650  0.37979869  1
  Ni  Ni82  1  0.55991124  0.68103856  0.37981441  1
  Ni  Ni83  1  0.44008592  0.31898479  0.62024648  1
  Ni  Ni84  1  0.31893814  0.44008902  0.62018139  1
  Ni  Ni85  1  0.55991356  0.68104338  0.62019096  1
  Ni  Ni86  1  0.68106393  0.55993669  0.62018761  1
  Ni  Ni87  1  0.68108234  0.44012663  0.62024660  1
  Ni  Ni88  1  0.44007957  0.68104497  0.62017303  1
  Ni  Ni89  1  0.62118364  0.31923016  0.55981203  1
  Ni  Ni90  1  0.31919897  0.62127991  0.55963871  1
  Ni  Ni91  1  0.68070048  0.37881508  0.55967070  1
  Ni  Ni92  1  0.31919799  0.37872532  0.55963786  1
  Ni  Ni93  1  0.37869473  0.31923867  0.55963801  1
  Ni  Ni94  1  0.62128512  0.68078494  0.55963760  1
  Ni  Ni95  1  0.68079375  0.62128703  0.55963677  1
  Ni  Ni96  1  0.37872770  0.68078551  0.55963773  1
  Ni  Ni97  1  0.62106521  0.31849686  0.43962996  1
  Ni  Ni98  1  0.31920536  0.62126806  0.44036875  1
  Ni  Ni99  1  0.68046783  0.37859279  0.44035056  1
  Ni  Ni100  1  0.37867016  0.31924686  0.44043161  1
  Ni  Ni101  1  0.31919873  0.37875041  0.44042073  1
  Ni  Ni102  1  0.68077528  0.62127464  0.44038077  1
  Ni  Ni103  1  0.62126350  0.68078707  0.44037946  1
  Ni  Ni104  1  0.37872167  0.68077969  0.44037896  1
  Ni  Ni105  1  0.49973462  0.25995099  0.50030540  1
  Ni  Ni106  1  0.25975826  0.50000500  0.50002737  1
  Ni  Ni107  1  0.49999702  0.74020651  0.50001489  1
  Ni  Ni108  1  0.74021492  0.49999823  0.49997442  1
  Ni  Ni109  1  0.49997956  0.31559536  0.68364773  1
  Ni  Ni110  1  0.31559648  0.50002031  0.68360973  1
  Ni  Ni111  1  0.68444327  0.50003795  0.68364309  1
  Ni  Ni112  1  0.49997899  0.68440016  0.68361312  1
  Ni  Ni113  1  0.49997535  0.31590418  0.31658752  1
  Ni  Ni114  1  0.31557003  0.50002866  0.31632586  1
  Ni  Ni115  1  0.68433872  0.50001442  0.31643897  1
  Ni  Ni116  1  0.49999182  0.68440942  0.31636945  1
  Ni  Ni117  1  0.43940666  0.56062479  0.26159640  1
  Ni  Ni118  1  0.56060102  0.56061133  0.26160383  1
  Ni  Ni119  1  0.56054408  0.43940104  0.26160903  1
  Ni  Ni120  1  0.43937482  0.43940859  0.26158790  1
  Ni  Ni121  1  0.43938578  0.56060528  0.73838730  1
  Ni  Ni122  1  0.56060658  0.56061132  0.73839167  1
  Ni  Ni123  1  0.56061224  0.43939900  0.73837683  1
  Ni  Ni124  1  0.43938265  0.43939711  0.73838690  1
  Ni  Ni125  1  0.26041703  0.56012018  0.56043027  1
  Ni  Ni126  1  0.55996720  0.26045799  0.56055452  1
  Ni  Ni127  1  0.43975369  0.26038677  0.56056356  1
  Ni  Ni128  1  0.26040520  0.43987350  0.56044545  1
  Ni  Ni129  1  0.73958269  0.56012124  0.56040480  1
  Ni  Ni130  1  0.73954352  0.43990452  0.56038853  1
  Ni  Ni131  1  0.43988710  0.73957238  0.56042790  1
  Ni  Ni132  1  0.56011721  0.73956458  0.56043420  1
  Ni  Ni133  1  0.26042968  0.56010930  0.43959210  1
  Ni  Ni134  1  0.56072537  0.26062579  0.43921832  1
  Ni  Ni135  1  0.26043797  0.43989071  0.43958979  1
  Ni  Ni136  1  0.43973297  0.26050990  0.43968107  1
  Ni  Ni137  1  0.56011378  0.73955798  0.43958352  1
  Ni  Ni138  1  0.73956341  0.56013750  0.43960826  1
  Ni  Ni139  1  0.73954743  0.43988804  0.43964030  1
  Ni  Ni140  1  0.43987951  0.73955905  0.43958090  1
  Ni  Ni141  1  0.74158611  0.37696291  0.49998817  1
  Ni  Ni142  1  0.62305824  0.25843704  0.50024117  1
  Ni  Ni143  1  0.25835057  0.62310594  0.50003625  1
  Ni  Ni144  1  0.74166734  0.62310640  0.50002597  1
  Ni  Ni145  1  0.37690941  0.25831668  0.50007863  1
  Ni  Ni146  1  0.62308624  0.74165356  0.50002457  1
  Ni  Ni147  1  0.25834739  0.37691662  0.50002573  1
  Ni  Ni148  1  0.37690086  0.74165545  0.50000297  1
  Ni  Ni149  1  0.62243360  0.31813181  0.68102950  1
  Ni  Ni150  1  0.31813870  0.62244373  0.68101455  1
  Ni  Ni151  1  0.68187588  0.37751756  0.68104287  1
  Ni  Ni152  1  0.37749195  0.31817180  0.68105557  1
  Ni  Ni153  1  0.31810951  0.37754388  0.68103005  1
  Ni  Ni154  1  0.68189529  0.62246772  0.68103798  1
  Ni  Ni155  1  0.62247579  0.68187146  0.68102939  1
  Ni  Ni156  1  0.37755816  0.68186205  0.68100640  1
  Ni  Ni157  1  0.62219738  0.31831705  0.31904772  1
  Ni  Ni158  1  0.37760193  0.31817470  0.31898529  1
  Ni  Ni159  1  0.31815541  0.62242555  0.31897531  1
  Ni  Ni160  1  0.68174072  0.37769228  0.31914929  1
  Ni  Ni161  1  0.31812628  0.37753398  0.31893039  1
  Ni  Ni162  1  0.37754368  0.68187268  0.31896282  1
  Ni  Ni163  1  0.68187218  0.62245452  0.31896538  1
  Ni  Ni164  1  0.62244322  0.68187189  0.31897016  1
  Ni  Ni165  1  0.31821696  0.31822404  0.37865862  1
  Ni  Ni166  1  0.68175976  0.31828507  0.37877908  1
  Ni  Ni167  1  0.31821071  0.68178510  0.37861607  1
  Ni  Ni168  1  0.31817777  0.31822217  0.62138188  1
  Ni  Ni169  1  0.68178465  0.68178634  0.37865325  1
  Ni  Ni170  1  0.68177983  0.31822130  0.62137287  1
  Ni  Ni171  1  0.31821272  0.68179728  0.62135118  1
  Ni  Ni172  1  0.68182504  0.68181241  0.62137430  1
  Ni  Ni173  1  0.43988205  0.50000050  0.79712663  1
  Ni  Ni174  1  0.49999223  0.56011408  0.79713741  1
  Ni  Ni175  1  0.49998787  0.43989792  0.79713779  1
  Ni  Ni176  1  0.56012257  0.49999542  0.79714828  1
  Ni  Ni177  1  0.43990038  0.50007902  0.20284391  1
  Ni  Ni178  1  0.56013593  0.50004531  0.20282887  1
  Ni  Ni179  1  0.49996724  0.43993475  0.20279323  1
  Ni  Ni180  1  0.50001291  0.56012887  0.20281941  1
  Ni  Ni181  1  0.56252967  0.26292272  0.67911594  1
  Ni  Ni182  1  0.26292297  0.56256997  0.67909587  1
  Ni  Ni183  1  0.26293230  0.43744751  0.67909972  1
  Ni  Ni184  1  0.43737271  0.26297076  0.67916706  1
  Ni  Ni185  1  0.56255734  0.73704044  0.67909643  1
  Ni  Ni186  1  0.43744064  0.73706496  0.67910174  1
  Ni  Ni187  1  0.73708022  0.43747398  0.67914191  1
  Ni  Ni188  1  0.73708927  0.56258314  0.67910187  1
  Ni  Ni189  1  0.56220434  0.26318073  0.32104409  1
  Ni  Ni190  1  0.26293403  0.56253894  0.32088250  1
  Ni  Ni191  1  0.26294992  0.43744345  0.32084522  1
  Ni  Ni192  1  0.43754141  0.26306530  0.32098182  1
  Ni  Ni193  1  0.56254078  0.73706855  0.32089059  1
  Ni  Ni194  1  0.73704599  0.56252989  0.32089304  1
  Ni  Ni195  1  0.43744408  0.73707755  0.32089569  1
  Ni  Ni196  1  0.73700951  0.43749732  0.32096320  1
  Ni  Ni197  1  0.32019498  0.56241936  0.26375111  1
  Ni  Ni198  1  0.56234276  0.32026135  0.26382150  1
  Ni  Ni199  1  0.32021610  0.43759582  0.26374658  1
  Ni  Ni200  1  0.43765855  0.32023532  0.26374606  1
  Ni  Ni201  1  0.56238805  0.67977497  0.26378224  1
  Ni  Ni202  1  0.67978170  0.43763642  0.26381035  1
  Ni  Ni203  1  0.67978409  0.56239793  0.26376787  1
  Ni  Ni204  1  0.43760032  0.67979891  0.26378248  1
  Ni  Ni205  1  0.56239433  0.32021250  0.73622564  1
  Ni  Ni206  1  0.32019628  0.56240523  0.73622568  1
  Ni  Ni207  1  0.43759401  0.32023807  0.73623394  1
  Ni  Ni208  1  0.32019073  0.43760630  0.73621210  1
  Ni  Ni209  1  0.67981187  0.56240754  0.73623017  1
  Ni  Ni210  1  0.56239730  0.67978135  0.73619547  1
  Ni  Ni211  1  0.43759613  0.67980807  0.73624181  1
  Ni  Ni212  1  0.67979897  0.43760958  0.73623411  1
  Ni  Ni213  1  0.79761635  0.50004327  0.55922407  1
  Ni  Ni214  1  0.49988429  0.20230478  0.55937416  1
  Ni  Ni215  1  0.49999244  0.79762839  0.55922929  1
  Ni  Ni216  1  0.67930572  0.26146523  0.56207284  1
  Ni  Ni217  1  0.32063428  0.26144847  0.56216322  1
  Ni  Ni218  1  0.73844056  0.32081657  0.56199785  1
  Ni  Ni219  1  0.20235853  0.49999097  0.55924377  1
  Ni  Ni220  1  0.26141272  0.32063353  0.56210914  1
  Ni  Ni221  1  0.32065102  0.73857235  0.56208844  1
  Ni  Ni222  1  0.26140034  0.67937309  0.56210412  1
  Ni  Ni223  1  0.73858126  0.67936554  0.56209922  1
  Ni  Ni224  1  0.67935922  0.73858024  0.56209864  1
  Ni  Ni225  1  0.67928797  0.26160106  0.43820680  1
  Ni  Ni226  1  0.79762024  0.50002744  0.44078165  1
  Ni  Ni227  1  0.49993327  0.20273393  0.44085417  1
  Ni  Ni228  1  0.50000338  0.79761068  0.44077614  1
  Ni  Ni229  1  0.73843848  0.32074406  0.43805437  1
  Ni  Ni230  1  0.20238537  0.49999231  0.44077190  1
  Ni  Ni231  1  0.26147062  0.67931973  0.43790574  1
  Ni  Ni232  1  0.32068335  0.26143457  0.43790100  1
  Ni  Ni233  1  0.26144268  0.32068044  0.43791566  1
  Ni  Ni234  1  0.32065983  0.73852869  0.43790352  1
  Ni  Ni235  1  0.73855670  0.67931845  0.43791550  1
  Ni  Ni236  1  0.67933546  0.73855225  0.43791062  1
  Ni  Ni237  1  0.38254850  0.56096957  0.79624448  1
  Ni  Ni238  1  0.56094589  0.61743572  0.79622198  1
  Ni  Ni239  1  0.43903646  0.61745908  0.79626148  1
  Ni  Ni240  1  0.61746788  0.56096723  0.79625553  1
  Ni  Ni241  1  0.61746442  0.43904361  0.79624080  1
  Ni  Ni242  1  0.56097546  0.38256195  0.79624240  1
  Ni  Ni243  1  0.38251220  0.43905100  0.79622867  1
  Ni  Ni244  1  0.43903476  0.38254434  0.79624034  1
  Ni  Ni245  1  0.38251138  0.56098351  0.20371417  1
  Ni  Ni246  1  0.61749341  0.43898384  0.20380693  1
  Ni  Ni247  1  0.43902136  0.61742892  0.20370457  1
  Ni  Ni248  1  0.43902036  0.38253300  0.20371370  1
  Ni  Ni249  1  0.56093399  0.38256402  0.20373724  1
  Ni  Ni250  1  0.56096918  0.61744268  0.20374699  1
  Ni  Ni251  1  0.61746902  0.56096076  0.20375586  1
  Ni  Ni252  1  0.38257675  0.43903263  0.20372921  1
  Ni  Ni253  1  0.56115002  0.20302592  0.38447994  1
  Ni  Ni254  1  0.20274604  0.43849254  0.38392706  1
  Ni  Ni255  1  0.43848569  0.79722860  0.38392638  1
  Ni  Ni256  1  0.79719660  0.43846445  0.38391132  1
  Ni  Ni257  1  0.79723870  0.56151058  0.38393131  1
  Ni  Ni258  1  0.43859314  0.20286396  0.38398748  1
  Ni  Ni259  1  0.56150617  0.79724363  0.38392549  1
  Ni  Ni260  1  0.56146178  0.20277337  0.61621861  1
  Ni  Ni261  1  0.20276934  0.56149921  0.38392723  1
  Ni  Ni262  1  0.56150509  0.79725872  0.61606457  1
  Ni  Ni263  1  0.79728303  0.56152671  0.61608275  1
  Ni  Ni264  1  0.43849067  0.79724581  0.61608248  1
  Ni  Ni265  1  0.20273687  0.56153310  0.61606913  1
  Ni  Ni266  1  0.43836037  0.20269086  0.61626969  1
  Ni  Ni267  1  0.20272168  0.43847439  0.61610060  1
  Ni  Ni268  1  0.79722289  0.43849888  0.61604969  1
  Ni  Ni269  1  0.79552845  0.38058234  0.55903817  1
  Ni  Ni270  1  0.61926042  0.20448717  0.55905990  1
  Ni  Ni271  1  0.38056330  0.79552351  0.55904174  1
  Ni  Ni272  1  0.38050504  0.20444851  0.55914510  1
  Ni  Ni273  1  0.20446877  0.61946236  0.55904975  1
  Ni  Ni274  1  0.79555224  0.61945492  0.55905116  1
  Ni  Ni275  1  0.61943835  0.79552915  0.55906010  1
  Ni  Ni276  1  0.20444927  0.38054281  0.55904381  1
  Ni  Ni277  1  0.79552056  0.38055478  0.44100941  1
  Ni  Ni278  1  0.61917958  0.20483844  0.44133329  1
  Ni  Ni279  1  0.38055407  0.79551708  0.44094522  1
  Ni  Ni280  1  0.79552249  0.61944853  0.44095538  1
  Ni  Ni281  1  0.20453032  0.61942697  0.44097716  1
  Ni  Ni282  1  0.61942925  0.79549761  0.44096325  1
  Ni  Ni283  1  0.38051344  0.20449323  0.44097592  1
  Ni  Ni284  1  0.20450506  0.38056547  0.44096560  1
  H  H285  1  0.65543475  0.22545749  0.34444317  1
  Pt  Pt286  1  0.56050860  0.56051881  0.50001581  1
  Pt  Pt287  1  0.43949180  0.56051168  0.50002188  1
  Pt  Pt288  1  0.56049061  0.43949903  0.49997595  1
  Pt  Pt289  1  0.43950616  0.43952026  0.50005113  1
  Pt  Pt290  1  0.49997248  0.50001892  0.37870359  1
  Pt  Pt291  1  0.50001255  0.50001348  0.62131088  1
  Pt  Pt292  1  0.62105435  0.49999453  0.37920158  1
  Pt  Pt293  1  0.49999656  0.62110946  0.37918672  1
  Pt  Pt294  1  0.49999240  0.62111241  0.62082831  1
  Pt  Pt295  1  0.62113499  0.50003736  0.62085625  1
  Pt  Pt296  1  0.49981575  0.37906002  0.37941529  1
  Pt  Pt297  1  0.37888410  0.50000058  0.37914982  1
  Pt  Pt298  1  0.50000123  0.37890837  0.62081383  1
  Pt  Pt299  1  0.37888737  0.50000316  0.62081952  1
  Pt  Pt300  1  0.31932428  0.56053571  0.50001827  1
  Pt  Pt301  1  0.56072473  0.31919165  0.49987056  1
  Pt  Pt302  1  0.43943985  0.31937914  0.50004441  1
  Pt  Pt303  1  0.31932325  0.43949970  0.50003116  1
  Pt  Pt304  1  0.68066497  0.56053121  0.50001463  1
  Pt  Pt305  1  0.56053679  0.68065521  0.50001950  1
  Pt  Pt306  1  0.68058305  0.43944107  0.49997493  1
  Pt  Pt307  1  0.43945994  0.68066565  0.50000705  1
  Pt  Pt308  1  0.62138008  0.62137389  0.37917498  1
  Pt  Pt309  1  0.62139744  0.62140299  0.62081723  1
  Pt  Pt310  1  0.62127677  0.37855387  0.37920930  1
  Pt  Pt311  1  0.37863340  0.62138574  0.37918810  1
  Pt  Pt312  1  0.62136188  0.37866889  0.62085727  1
  Pt  Pt313  1  0.37861343  0.62138508  0.62081008  1
  Pt  Pt314  1  0.37855493  0.37869687  0.37920835  1
  Pt  Pt315  1  0.37860703  0.37861484  0.62081183  1
  Pt  Pt316  1  0.50000266  0.49999646  0.26089357  1
  Pt  Pt317  1  0.50000693  0.49999699  0.73909744  1
  Pt  Pt318  1  0.68468245  0.31520926  0.50003204  1
  Pt  Pt319  1  0.31493354  0.31492411  0.50003066  1
  Pt  Pt320  1  0.31496276  0.68503219  0.50002438  1
  Pt  Pt321  1  0.68505308  0.68505515  0.50001670  1
  Pt  Pt322  1  0.49998123  0.62478046  0.25745550  1
  Pt  Pt323  1  0.62476902  0.50000501  0.25748217  1
  Pt  Pt324  1  0.62478789  0.50002386  0.74252579  1
  Pt  Pt325  1  0.49997298  0.62477359  0.74249919  1
  Pt  Pt326  1  0.49999560  0.37531599  0.25746991  1
  Pt  Pt327  1  0.37522140  0.50000842  0.25744258  1
  Pt  Pt328  1  0.50001078  0.37524099  0.74252588  1
  Pt  Pt329  1  0.37522018  0.50001682  0.74250434  1
  Pt  Pt330  1  0.74409212  0.50000855  0.37522544  1
  Pt  Pt331  1  0.50000564  0.74409240  0.37520133  1
  Pt  Pt332  1  0.74413263  0.50002623  0.62482533  1
  Pt  Pt333  1  0.49999912  0.74410119  0.62480315  1
  Pt  Pt334  1  0.49990972  0.25629765  0.37544108  1
  Pt  Pt335  1  0.25590919  0.49998848  0.37518238  1
  Pt  Pt336  1  0.25585852  0.50000111  0.62482168  1
  Pt  Pt337  1  0.49989920  0.25588179  0.62485137  1
  Pt  Pt338  1  0.62254641  0.62255961  0.25969145  1
  Pt  Pt339  1  0.62258064  0.62255285  0.74032174  1
  Pt  Pt340  1  0.62246740  0.37757459  0.25978364  1
  Pt  Pt341  1  0.37746160  0.62256669  0.25966660  1
  Pt  Pt342  1  0.62256101  0.37746311  0.74030016  1
  Pt  Pt343  1  0.37744809  0.62255559  0.74030764  1
  Pt  Pt344  1  0.37745375  0.37742492  0.25967425  1
  Pt  Pt345  1  0.37742070  0.37745676  0.74033283  1
  Pt  Pt346  1  0.74112593  0.62263691  0.37807222  1
  Pt  Pt347  1  0.62263663  0.74112933  0.37806712  1
  Pt  Pt348  1  0.74114918  0.62264945  0.62190978  1
  Pt  Pt349  1  0.62264875  0.74113894  0.62192693  1
  Pt  Pt350  1  0.74104582  0.37745573  0.37818761  1
  Pt  Pt351  1  0.37734984  0.74111737  0.37807440  1
  Pt  Pt352  1  0.74111786  0.37737668  0.62192834  1
  Pt  Pt353  1  0.37734600  0.74115488  0.62192027  1
  Pt  Pt354  1  0.25887029  0.62263592  0.37802633  1
  Pt  Pt355  1  0.62554149  0.25545621  0.37538543  1
  Pt  Pt356  1  0.62263848  0.25884288  0.62195479  1
  Pt  Pt357  1  0.25885324  0.62266891  0.62193349  1
  Pt  Pt358  1  0.25888937  0.37737662  0.37805935  1
  Pt  Pt359  1  0.37736229  0.25888127  0.37805456  1
  Pt  Pt360  1  0.25882778  0.37734665  0.62192731  1
  Pt  Pt361  1  0.37733214  0.25890397  0.62196930  1
  Pt  Pt362  1  0.56034077  0.19981313  0.49997448  1
  Pt  Pt363  1  0.43931951  0.80045393  0.49999048  1
  Pt  Pt364  1  0.43927082  0.19946800  0.50003184  1
  Pt  Pt365  1  0.56067177  0.80046675  0.50001465  1
  Pt  Pt366  1  0.19952575  0.43932628  0.50000870  1
  Pt  Pt367  1  0.80048014  0.43936430  0.50000300  1
  Pt  Pt368  1  0.80049403  0.56070791  0.50000289  1
  Pt  Pt369  1  0.19951761  0.56067240  0.50001140  1
