# generated using pymatgen
data_Ni285HPt84
_symmetry_space_group_name_H-M   'P 1'
_cell_length_a   30.00000000
_cell_length_b   30.00000000
_cell_length_c   30.00000000
_cell_angle_alpha   90.00000000
_cell_angle_beta   90.00000000
_cell_angle_gamma   90.00000000
_symmetry_Int_Tables_number   1
_chemical_formula_structural   Ni285HPt84
_chemical_formula_sum   'Ni285 H1 Pt84'
_cell_volume   27000.00000000
_cell_formula_units_Z   1
loop_
 _symmetry_equiv_pos_site_id
 _symmetry_equiv_pos_as_xyz
  1  'x, y, z'
loop_
 _atom_site_type_symbol
 _atom_site_label
 _atom_site_symmetry_multiplicity
 _atom_site_fract_x
 _atom_site_fract_y
 _atom_site_fract_z
 _atom_site_occupancy
  Ni  Ni0  1  0.49997932  0.50000983  0.50005543  1
  Ni  Ni1  1  0.49994995  0.56040616  0.56084396  1
  Ni  Ni2  1  0.56042395  0.49996995  0.56082590  1
  Ni  Ni3  1  0.49997437  0.43956433  0.56080678  1
  Ni  Ni4  1  0.43956446  0.50000498  0.56083135  1
  Ni  Ni5  1  0.50002682  0.56034777  0.43924650  1
  Ni  Ni6  1  0.56040738  0.49996478  0.43927327  1
  Ni  Ni7  1  0.49998087  0.43959474  0.43921434  1
  Ni  Ni8  1  0.43956061  0.50003005  0.43922168  1
  Ni  Ni9  1  0.62028583  0.49999174  0.50001862  1
  Ni  Ni10  1  0.49999219  0.62027643  0.50000806  1
  Ni  Ni11  1  0.49997059  0.37970323  0.49998740  1
  Ni  Ni12  1  0.37970605  0.50001620  0.50000174  1
  Ni  Ni13  1  0.43921365  0.56077504  0.37896905  1
  Ni  Ni14  1  0.56077488  0.56069012  0.37901797  1
  Ni  Ni15  1  0.56075151  0.43924256  0.37900911  1
  Ni  Ni16  1  0.43920642  0.43924561  0.37897844  1
  Ni  Ni17  1  0.43922243  0.56079126  0.62100099  1
  Ni  Ni18  1  0.56077738  0.56081231  0.62094759  1
  Ni  Ni19  1  0.56077987  0.43921677  0.62101188  1
  Ni  Ni20  1  0.43920838  0.43920700  0.62104655  1
  Ni  Ni21  1  0.37886177  0.56085265  0.56081151  1
  Ni  Ni22  1  0.56078894  0.37884852  0.56083456  1
  Ni  Ni23  1  0.43925328  0.62124262  0.56075892  1
  Ni  Ni24  1  0.62123559  0.56074927  0.56084157  1
  Ni  Ni25  1  0.56087299  0.62119233  0.56089292  1
  Ni  Ni26  1  0.62117364  0.43920764  0.56083990  1
  Ni  Ni27  1  0.43920168  0.37883464  0.56082394  1
  Ni  Ni28  1  0.37882052  0.43921144  0.56083021  1
  Ni  Ni29  1  0.37887776  0.56079041  0.43919707  1
  Ni  Ni30  1  0.62112492  0.56071715  0.43921367  1
  Ni  Ni31  1  0.56077584  0.37887163  0.43917823  1
  Ni  Ni32  1  0.56081357  0.62110401  0.43922013  1
  Ni  Ni33  1  0.43930176  0.62113884  0.43914597  1
  Ni  Ni34  1  0.62116026  0.43922246  0.43920392  1
  Ni  Ni35  1  0.43919214  0.37885694  0.43918451  1
  Ni  Ni36  1  0.37883204  0.43921701  0.43918257  1
  Ni  Ni37  1  0.62124560  0.37876731  0.49999195  1
  Ni  Ni38  1  0.62124541  0.62117024  0.49995034  1
  Ni  Ni39  1  0.37887674  0.62130423  0.49992621  1
  Ni  Ni40  1  0.37875018  0.37877565  0.50000914  1
  Ni  Ni41  1  0.50000599  0.56135056  0.68061250  1
  Ni  Ni42  1  0.56132112  0.50002804  0.68061853  1
  Ni  Ni43  1  0.50000496  0.43866491  0.68065830  1
  Ni  Ni44  1  0.43866355  0.49999272  0.68064544  1
  Ni  Ni45  1  0.56132443  0.49997458  0.31936071  1
  Ni  Ni46  1  0.50002765  0.56130672  0.31932825  1
  Ni  Ni47  1  0.49998146  0.43865045  0.31937705  1
  Ni  Ni48  1  0.43863508  0.49999627  0.31937464  1
  Ni  Ni49  1  0.50000224  0.31849131  0.56068181  1
  Ni  Ni50  1  0.31848655  0.50002184  0.56066997  1
  Ni  Ni51  1  0.49994529  0.68156936  0.56074168  1
  Ni  Ni52  1  0.68155389  0.49997852  0.56073728  1
  Ni  Ni53  1  0.49999669  0.31848156  0.43931401  1
  Ni  Ni54  1  0.31847084  0.50002107  0.43934242  1
  Ni  Ni55  1  0.50026756  0.68149884  0.43927410  1
  Ni  Ni56  1  0.68153909  0.49996867  0.43931742  1
  Ni  Ni57  1  0.37876018  0.56038310  0.68019144  1
  Ni  Ni58  1  0.43963352  0.62128983  0.68022423  1
  Ni  Ni59  1  0.56035530  0.62124439  0.68019344  1
  Ni  Ni60  1  0.56037806  0.37873710  0.68021902  1
  Ni  Ni61  1  0.62127627  0.56038986  0.68017571  1
  Ni  Ni62  1  0.62126777  0.43965291  0.68019363  1
  Ni  Ni63  1  0.37874013  0.43964996  0.68019472  1
  Ni  Ni64  1  0.43963398  0.37873889  0.68021378  1
  Ni  Ni65  1  0.56035390  0.37873866  0.31979690  1
  Ni  Ni66  1  0.37874300  0.56033296  0.31982203  1
  Ni  Ni67  1  0.56031413  0.62117620  0.31966183  1
  Ni  Ni68  1  0.43966620  0.62122453  0.31976632  1
  Ni  Ni69  1  0.62128172  0.43964514  0.31980772  1
  Ni  Ni70  1  0.62128241  0.56033068  0.31978971  1
  Ni  Ni71  1  0.43963058  0.37873292  0.31980341  1
  Ni  Ni72  1  0.37870957  0.43965182  0.31978768  1
  Ni  Ni73  1  0.56013861  0.31897971  0.37978531  1
  Ni  Ni74  1  0.31901211  0.56017393  0.37981944  1
  Ni  Ni75  1  0.43984120  0.31898761  0.37978164  1
  Ni  Ni76  1  0.31895677  0.43986508  0.37979910  1
  Ni  Ni77  1  0.31900098  0.56015420  0.62020046  1
  Ni  Ni78  1  0.56016481  0.31897308  0.62023947  1
  Ni  Ni79  1  0.68094934  0.56010687  0.37984569  1
  Ni  Ni80  1  0.68104904  0.43985791  0.37978439  1
  Ni  Ni81  1  0.43972921  0.68069257  0.37969350  1
  Ni  Ni82  1  0.56005571  0.68097575  0.37963308  1
  Ni  Ni83  1  0.43985221  0.31897796  0.62022821  1
  Ni  Ni84  1  0.31897271  0.43988115  0.62020731  1
  Ni  Ni85  1  0.56020939  0.68107185  0.62016233  1
  Ni  Ni86  1  0.68104977  0.56009325  0.62023452  1
  Ni  Ni87  1  0.68106664  0.43986040  0.62023413  1
  Ni  Ni88  1  0.43986618  0.68108401  0.62020904  1
  Ni  Ni89  1  0.62139929  0.31915675  0.55979004  1
  Ni  Ni90  1  0.31919917  0.62144981  0.55975537  1
  Ni  Ni91  1  0.68086444  0.37858036  0.55979215  1
  Ni  Ni92  1  0.31915166  0.37859978  0.55976440  1
  Ni  Ni93  1  0.37859953  0.31914117  0.55977825  1
  Ni  Ni94  1  0.62152234  0.68098243  0.55986727  1
  Ni  Ni95  1  0.68075486  0.62148173  0.55961781  1
  Ni  Ni96  1  0.37870716  0.68085349  0.55969517  1
  Ni  Ni97  1  0.62139293  0.31914983  0.44021514  1
  Ni  Ni98  1  0.31914428  0.62140102  0.44022594  1
  Ni  Ni99  1  0.68085966  0.37861546  0.44021509  1
  Ni  Ni100  1  0.37859681  0.31915716  0.44021662  1
  Ni  Ni101  1  0.31915315  0.37859560  0.44022767  1
  Ni  Ni102  1  0.68063912  0.62152757  0.44019858  1
  Ni  Ni103  1  0.62103508  0.68107165  0.43999006  1
  Ni  Ni104  1  0.37871721  0.68085882  0.44018778  1
  Ni  Ni105  1  0.50000180  0.26020697  0.50000836  1
  Ni  Ni106  1  0.26022044  0.50001867  0.50003657  1
  Ni  Ni107  1  0.50024487  0.73997820  0.49963567  1
  Ni  Ni108  1  0.73982926  0.49996343  0.50003634  1
  Ni  Ni109  1  0.50002328  0.31544666  0.68353839  1
  Ni  Ni110  1  0.31546717  0.50001896  0.68349840  1
  Ni  Ni111  1  0.68462868  0.49999899  0.68353177  1
  Ni  Ni112  1  0.49999464  0.68448719  0.68353089  1
  Ni  Ni113  1  0.50000942  0.31547847  0.31648686  1
  Ni  Ni114  1  0.31548275  0.49998836  0.31650050  1
  Ni  Ni115  1  0.68458855  0.50002473  0.31648438  1
  Ni  Ni116  1  0.50000340  0.68436321  0.31643374  1
  Ni  Ni117  1  0.43933843  0.56058698  0.26182146  1
  Ni  Ni118  1  0.56065521  0.56052768  0.26179631  1
  Ni  Ni119  1  0.56064779  0.43935726  0.26184083  1
  Ni  Ni120  1  0.43932318  0.43934006  0.26182843  1
  Ni  Ni121  1  0.43935113  0.56063496  0.73816440  1
  Ni  Ni122  1  0.56062636  0.56059743  0.73820893  1
  Ni  Ni123  1  0.56063417  0.43939090  0.73818032  1
  Ni  Ni124  1  0.43936483  0.43937105  0.73815522  1
  Ni  Ni125  1  0.26075776  0.56031057  0.56030051  1
  Ni  Ni126  1  0.56028259  0.26073398  0.56031546  1
  Ni  Ni127  1  0.43973069  0.26072869  0.56033001  1
  Ni  Ni128  1  0.26074181  0.43972572  0.56031334  1
  Ni  Ni129  1  0.73924875  0.56032215  0.56026430  1
  Ni  Ni130  1  0.73934907  0.43972023  0.56034188  1
  Ni  Ni131  1  0.43979753  0.73931691  0.56025584  1
  Ni  Ni132  1  0.56034661  0.73918702  0.56031017  1
  Ni  Ni133  1  0.26074691  0.56026299  0.43970346  1
  Ni  Ni134  1  0.56028155  0.26072261  0.43967982  1
  Ni  Ni135  1  0.26072829  0.43971934  0.43967895  1
  Ni  Ni136  1  0.43971767  0.26071417  0.43968457  1
  Ni  Ni137  1  0.56014464  0.73958462  0.43965259  1
  Ni  Ni138  1  0.73922378  0.56034257  0.43968165  1
  Ni  Ni139  1  0.73932188  0.43973118  0.43968748  1
  Ni  Ni140  1  0.44018809  0.73939410  0.43948567  1
  Ni  Ni141  1  0.74136754  0.37707409  0.49999052  1
  Ni  Ni142  1  0.62291852  0.25864537  0.50000900  1
  Ni  Ni143  1  0.25870283  0.62296411  0.50000178  1
  Ni  Ni144  1  0.74105961  0.62328428  0.49980919  1
  Ni  Ni145  1  0.37707628  0.25865690  0.50000583  1
  Ni  Ni146  1  0.62266201  0.74239197  0.49919443  1
  Ni  Ni147  1  0.25864582  0.37706381  0.49997890  1
  Ni  Ni148  1  0.37729329  0.74139688  0.49977716  1
  Ni  Ni149  1  0.62260668  0.31799768  0.68125674  1
  Ni  Ni150  1  0.31799733  0.62259162  0.68122271  1
  Ni  Ni151  1  0.68202651  0.37741725  0.68126462  1
  Ni  Ni152  1  0.37739034  0.31798520  0.68125007  1
  Ni  Ni153  1  0.31797153  0.37741627  0.68122295  1
  Ni  Ni154  1  0.68210117  0.62261966  0.68131994  1
  Ni  Ni155  1  0.62256691  0.68194460  0.68121355  1
  Ni  Ni156  1  0.37739166  0.68202484  0.68126389  1
  Ni  Ni157  1  0.62256128  0.31799801  0.31874130  1
  Ni  Ni158  1  0.37740470  0.31799233  0.31877294  1
  Ni  Ni159  1  0.31799944  0.62261068  0.31872129  1
  Ni  Ni160  1  0.68201845  0.37744150  0.31874063  1
  Ni  Ni161  1  0.31797391  0.37740752  0.31875023  1
  Ni  Ni162  1  0.37738140  0.68197778  0.31871447  1
  Ni  Ni163  1  0.68183452  0.62279561  0.31877095  1
  Ni  Ni164  1  0.62210112  0.68193985  0.31871664  1
  Ni  Ni165  1  0.31808942  0.31809470  0.37850960  1
  Ni  Ni166  1  0.68191087  0.31808480  0.37852253  1
  Ni  Ni167  1  0.31820015  0.68197615  0.37852157  1
  Ni  Ni168  1  0.31809238  0.31808118  0.62148116  1
  Ni  Ni169  1  0.68146436  0.68226078  0.37871081  1
  Ni  Ni170  1  0.68192601  0.31809407  0.62148569  1
  Ni  Ni171  1  0.31809874  0.68193941  0.62146530  1
  Ni  Ni172  1  0.68186936  0.68193184  0.62147744  1
  Ni  Ni173  1  0.44018563  0.49996696  0.79686346  1
  Ni  Ni174  1  0.49993939  0.55980077  0.79687224  1
  Ni  Ni175  1  0.50000890  0.44020519  0.79686623  1
  Ni  Ni176  1  0.55982011  0.49999858  0.79685576  1
  Ni  Ni177  1  0.44016545  0.49998550  0.20313629  1
  Ni  Ni178  1  0.55983932  0.49997429  0.20314562  1
  Ni  Ni179  1  0.49998191  0.44016621  0.20313190  1
  Ni  Ni180  1  0.49998165  0.55961638  0.20306552  1
  Ni  Ni181  1  0.56244040  0.26264687  0.67886640  1
  Ni  Ni182  1  0.26268964  0.56243720  0.67883306  1
  Ni  Ni183  1  0.26266335  0.43757277  0.67880102  1
  Ni  Ni184  1  0.43758063  0.26265989  0.67885773  1
  Ni  Ni185  1  0.56247080  0.73732300  0.67887616  1
  Ni  Ni186  1  0.43754580  0.73729141  0.67890780  1
  Ni  Ni187  1  0.73734952  0.43753748  0.67886477  1
  Ni  Ni188  1  0.73739652  0.56250025  0.67876083  1
  Ni  Ni189  1  0.56240951  0.26267203  0.32116288  1
  Ni  Ni190  1  0.26276190  0.56244039  0.32117719  1
  Ni  Ni191  1  0.26268905  0.43759314  0.32119892  1
  Ni  Ni192  1  0.43755950  0.26267477  0.32117543  1
  Ni  Ni193  1  0.56195226  0.73715678  0.32046985  1
  Ni  Ni194  1  0.73722353  0.56263943  0.32127003  1
  Ni  Ni195  1  0.43773783  0.73711395  0.32110854  1
  Ni  Ni196  1  0.73736873  0.43758825  0.32113281  1
  Ni  Ni197  1  0.32022738  0.56223127  0.26369680  1
  Ni  Ni198  1  0.56223370  0.32019740  0.26364111  1
  Ni  Ni199  1  0.32020485  0.43776669  0.26367043  1
  Ni  Ni200  1  0.43775080  0.32022162  0.26367692  1
  Ni  Ni201  1  0.56203933  0.67962497  0.26315382  1
  Ni  Ni202  1  0.67983596  0.43775425  0.26362787  1
  Ni  Ni203  1  0.67981798  0.56231999  0.26373800  1
  Ni  Ni204  1  0.43780223  0.67967858  0.26361762  1
  Ni  Ni205  1  0.56226892  0.32018650  0.73633642  1
  Ni  Ni206  1  0.32021379  0.56225536  0.73632782  1
  Ni  Ni207  1  0.43776113  0.32022012  0.73629922  1
  Ni  Ni208  1  0.32018454  0.43775659  0.73628386  1
  Ni  Ni209  1  0.67981859  0.56226161  0.73629537  1
  Ni  Ni210  1  0.56222898  0.67975920  0.73637727  1
  Ni  Ni211  1  0.43776826  0.67979472  0.73636782  1
  Ni  Ni212  1  0.67978928  0.43777643  0.73636010  1
  Ni  Ni213  1  0.79731866  0.50003290  0.55903487  1
  Ni  Ni214  1  0.49999574  0.20267904  0.55906228  1
  Ni  Ni215  1  0.49961362  0.79727896  0.55933643  1
  Ni  Ni216  1  0.67933570  0.26151639  0.56187769  1
  Ni  Ni217  1  0.32069069  0.26154362  0.56187169  1
  Ni  Ni218  1  0.73849527  0.32064351  0.56186749  1
  Ni  Ni219  1  0.20267370  0.50002190  0.55903080  1
  Ni  Ni220  1  0.26154367  0.32068729  0.56186555  1
  Ni  Ni221  1  0.32084054  0.73843579  0.56176432  1
  Ni  Ni222  1  0.26165010  0.67933419  0.56181709  1
  Ni  Ni223  1  0.73813725  0.67940297  0.56158477  1
  Ni  Ni224  1  0.67921635  0.73851924  0.56175589  1
  Ni  Ni225  1  0.67932781  0.26152833  0.43812726  1
  Ni  Ni226  1  0.79727814  0.50008055  0.44091370  1
  Ni  Ni227  1  0.50000545  0.20267783  0.44096802  1
  Ni  Ni228  1  0.50103406  0.79815578  0.44022608  1
  Ni  Ni229  1  0.73847791  0.32064164  0.43813410  1
  Ni  Ni230  1  0.20271541  0.50000529  0.44095168  1
  Ni  Ni231  1  0.26158017  0.67933230  0.43809771  1
  Ni  Ni232  1  0.32067348  0.26155413  0.43812647  1
  Ni  Ni233  1  0.26154647  0.32070039  0.43812621  1
  Ni  Ni234  1  0.32083270  0.73852345  0.43804293  1
  Ni  Ni235  1  0.73810637  0.67990659  0.43803178  1
  Ni  Ni236  1  0.67804456  0.73947509  0.43800020  1
  Ni  Ni237  1  0.38273738  0.56070936  0.79618014  1
  Ni  Ni238  1  0.56070022  0.61719514  0.79620916  1
  Ni  Ni239  1  0.43928633  0.61731198  0.79617419  1
  Ni  Ni240  1  0.61728341  0.56063903  0.79622424  1
  Ni  Ni241  1  0.61725370  0.43937054  0.79617341  1
  Ni  Ni242  1  0.56071134  0.38276550  0.79617400  1
  Ni  Ni243  1  0.38268218  0.43929795  0.79616440  1
  Ni  Ni244  1  0.43927080  0.38276751  0.79612607  1
  Ni  Ni245  1  0.38268747  0.56070736  0.20385167  1
  Ni  Ni246  1  0.61731086  0.43930331  0.20382746  1
  Ni  Ni247  1  0.43924945  0.61721838  0.20374956  1
  Ni  Ni248  1  0.43926758  0.38272668  0.20382910  1
  Ni  Ni249  1  0.56070255  0.38273957  0.20382669  1
  Ni  Ni250  1  0.56069881  0.61707835  0.20368534  1
  Ni  Ni251  1  0.61735353  0.56062739  0.20379354  1
  Ni  Ni252  1  0.38270158  0.43929168  0.20385609  1
  Ni  Ni253  1  0.56151610  0.20280319  0.38439880  1
  Ni  Ni254  1  0.20280985  0.43848236  0.38443299  1
  Ni  Ni255  1  0.43872647  0.79713924  0.38385442  1
  Ni  Ni256  1  0.79720093  0.43842302  0.38439412  1
  Ni  Ni257  1  0.79689895  0.56202799  0.38425574  1
  Ni  Ni258  1  0.43845426  0.20280684  0.38437317  1
  Ni  Ni259  1  0.56035288  0.79874861  0.38252997  1
  Ni  Ni260  1  0.56152678  0.20279273  0.61559876  1
  Ni  Ni261  1  0.20281505  0.56153664  0.38437029  1
  Ni  Ni262  1  0.56155931  0.79721752  0.61537181  1
  Ni  Ni263  1  0.79709580  0.56175096  0.61549135  1
  Ni  Ni264  1  0.43840577  0.79712860  0.61578063  1
  Ni  Ni265  1  0.20280993  0.56153287  0.61562653  1
  Ni  Ni266  1  0.43846489  0.20281541  0.61563977  1
  Ni  Ni267  1  0.20280581  0.43847398  0.61559335  1
  Ni  Ni268  1  0.79724167  0.43835636  0.61562539  1
  Ni  Ni269  1  0.79554681  0.38051377  0.55889328  1
  Ni  Ni270  1  0.61946396  0.20448841  0.55894445  1
  Ni  Ni271  1  0.38085570  0.79535090  0.55867604  1
  Ni  Ni272  1  0.38055694  0.20452633  0.55892996  1
  Ni  Ni273  1  0.20456012  0.61945248  0.55889502  1
  Ni  Ni274  1  0.79532950  0.61962039  0.55868855  1
  Ni  Ni275  1  0.61982105  0.79545618  0.55915997  1
  Ni  Ni276  1  0.20452778  0.38054483  0.55887661  1
  Ni  Ni277  1  0.79552068  0.38050000  0.44109242  1
  Ni  Ni278  1  0.61946974  0.20450759  0.44108018  1
  Ni  Ni279  1  0.38094600  0.79554970  0.44090793  1
  Ni  Ni280  1  0.79524525  0.61976856  0.44113460  1
  Ni  Ni281  1  0.20455830  0.61943872  0.44107928  1
  Ni  Ni282  1  0.61652045  0.79732571  0.43921351  1
  Ni  Ni283  1  0.38053729  0.20451093  0.44110235  1
  Ni  Ni284  1  0.20447841  0.38054305  0.44108530  1
  H  H285  1  0.56666051  0.84744501  0.38751492  1
  Pt  Pt286  1  0.56056537  0.56052612  0.50009499  1
  Pt  Pt287  1  0.43942923  0.56058763  0.50003867  1
  Pt  Pt288  1  0.56052982  0.43945487  0.50003002  1
  Pt  Pt289  1  0.43943041  0.43944098  0.50001394  1
  Pt  Pt290  1  0.49993712  0.49999213  0.37879330  1
  Pt  Pt291  1  0.49998349  0.50000463  0.62122502  1
  Pt  Pt292  1  0.62129324  0.49993720  0.37905071  1
  Pt  Pt293  1  0.50008484  0.62116167  0.37900092  1
  Pt  Pt294  1  0.50000485  0.62128423  0.62102224  1
  Pt  Pt295  1  0.62128316  0.50000105  0.62097911  1
  Pt  Pt296  1  0.49999241  0.37875963  0.37904881  1
  Pt  Pt297  1  0.37874065  0.50002877  0.37904502  1
  Pt  Pt298  1  0.50000514  0.37874045  0.62097074  1
  Pt  Pt299  1  0.37876258  0.50002196  0.62094864  1
  Pt  Pt300  1  0.31978825  0.56057727  0.49999594  1
  Pt  Pt301  1  0.56056043  0.31978808  0.50000255  1
  Pt  Pt302  1  0.43943540  0.31976943  0.50000628  1
  Pt  Pt303  1  0.31978556  0.43947381  0.49999492  1
  Pt  Pt304  1  0.68026666  0.56056576  0.49998173  1
  Pt  Pt305  1  0.56073067  0.68014989  0.50020358  1
  Pt  Pt306  1  0.68026879  0.43942066  0.50001678  1
  Pt  Pt307  1  0.43956001  0.68030360  0.49985261  1
  Pt  Pt308  1  0.62142466  0.62142283  0.37896883  1
  Pt  Pt309  1  0.62164082  0.62146832  0.62110612  1
  Pt  Pt310  1  0.62151952  0.37850851  0.37897844  1
  Pt  Pt311  1  0.37842315  0.62150031  0.37900363  1
  Pt  Pt312  1  0.62153700  0.37849982  0.62102469  1
  Pt  Pt313  1  0.37849735  0.62156431  0.62100542  1
  Pt  Pt314  1  0.37845688  0.37848465  0.37897799  1
  Pt  Pt315  1  0.37845969  0.37847116  0.62102067  1
  Pt  Pt316  1  0.50000295  0.49993029  0.26134631  1
  Pt  Pt317  1  0.50000897  0.50001355  0.73859624  1
  Pt  Pt318  1  0.68474359  0.31524578  0.50000284  1
  Pt  Pt319  1  0.31525920  0.31526826  0.50001231  1
  Pt  Pt320  1  0.31537803  0.68476445  0.49990411  1
  Pt  Pt321  1  0.68423309  0.68513211  0.49962915  1
  Pt  Pt322  1  0.49994460  0.62454010  0.25752860  1
  Pt  Pt323  1  0.62467132  0.49998686  0.25758558  1
  Pt  Pt324  1  0.62462059  0.50003739  0.74232244  1
  Pt  Pt325  1  0.49999673  0.62460418  0.74243709  1
  Pt  Pt326  1  0.50000259  0.37537170  0.25755546  1
  Pt  Pt327  1  0.37536843  0.49997397  0.25758125  1
  Pt  Pt328  1  0.50003285  0.37536342  0.74242045  1
  Pt  Pt329  1  0.37536577  0.49999836  0.74242426  1
  Pt  Pt330  1  0.74411906  0.50007324  0.37557262  1
  Pt  Pt331  1  0.50008777  0.74361265  0.37559138  1
  Pt  Pt332  1  0.74417399  0.50000163  0.62441608  1
  Pt  Pt333  1  0.49998426  0.74401531  0.62454464  1
  Pt  Pt334  1  0.49999656  0.25598616  0.37561754  1
  Pt  Pt335  1  0.25602750  0.50000548  0.37564599  1
  Pt  Pt336  1  0.25599361  0.50001972  0.62436970  1
  Pt  Pt337  1  0.50001741  0.25600959  0.62438187  1
  Pt  Pt338  1  0.62263674  0.62262937  0.25946386  1
  Pt  Pt339  1  0.62267063  0.62264120  0.74045236  1
  Pt  Pt340  1  0.62266821  0.37733389  0.25957022  1
  Pt  Pt341  1  0.37736264  0.62270105  0.25956214  1
  Pt  Pt342  1  0.62268287  0.37734733  0.74042495  1
  Pt  Pt343  1  0.37731554  0.62269907  0.74041483  1
  Pt  Pt344  1  0.37730871  0.37733191  0.25958193  1
  Pt  Pt345  1  0.37731091  0.37730705  0.74041489  1
  Pt  Pt346  1  0.74066966  0.62307730  0.37824039  1
  Pt  Pt347  1  0.62202438  0.74125501  0.37751852  1
  Pt  Pt348  1  0.74103091  0.62287333  0.62181401  1
  Pt  Pt349  1  0.62287898  0.74123650  0.62212622  1
  Pt  Pt350  1  0.74116832  0.37717920  0.37803072  1
  Pt  Pt351  1  0.37739680  0.74104942  0.37807818  1
  Pt  Pt352  1  0.74117562  0.37717124  0.62196505  1
  Pt  Pt353  1  0.37724815  0.74113401  0.62192989  1
  Pt  Pt354  1  0.25890329  0.62282910  0.37799527  1
  Pt  Pt355  1  0.62280165  0.25884345  0.37800992  1
  Pt  Pt356  1  0.62279844  0.25884532  0.62199981  1
  Pt  Pt357  1  0.25889647  0.62280987  0.62194326  1
  Pt  Pt358  1  0.25884064  0.37721723  0.37802471  1
  Pt  Pt359  1  0.37719207  0.25884079  0.37803961  1
  Pt  Pt360  1  0.25883236  0.37718549  0.62194954  1
  Pt  Pt361  1  0.37720782  0.25884749  0.62200175  1
  Pt  Pt362  1  0.56065003  0.19970718  0.50001650  1
  Pt  Pt363  1  0.43981889  0.80026124  0.49967558  1
  Pt  Pt364  1  0.43935717  0.19970650  0.50001416  1
  Pt  Pt365  1  0.56028999  0.80052042  0.50108698  1
  Pt  Pt366  1  0.19969483  0.43937850  0.49999639  1
  Pt  Pt367  1  0.80029349  0.43937098  0.49997953  1
  Pt  Pt368  1  0.80011962  0.56077479  0.49990165  1
  Pt  Pt369  1  0.19975389  0.56066220  0.49999469  1
