# generated using pymatgen
data_Ni285HPt84
_symmetry_space_group_name_H-M   'P 1'
_cell_length_a   30.00000000
_cell_length_b   30.00000000
_cell_length_c   30.00000000
_cell_angle_alpha   90.00000000
_cell_angle_beta   90.00000000
_cell_angle_gamma   90.00000000
_symmetry_Int_Tables_number   1
_chemical_formula_structural   Ni285HPt84
_chemical_formula_sum   'Ni285 H1 Pt84'
_cell_volume   27000.00000000
_cell_formula_units_Z   1
loop_
 _symmetry_equiv_pos_site_id
 _symmetry_equiv_pos_as_xyz
  1  'x, y, z'
loop_
 _atom_site_type_symbol
 _atom_site_label
 _atom_site_symmetry_multiplicity
 _atom_site_fract_x
 _atom_site_fract_y
 _atom_site_fract_z
 _atom_site_occupancy
  Ni  Ni0  1  0.49997600  0.50000909  0.49993596  1
  Ni  Ni1  1  0.50001081  0.56036310  0.56070181  1
  Ni  Ni2  1  0.56036818  0.50003176  0.56067717  1
  Ni  Ni3  1  0.49997043  0.43968765  0.56062459  1
  Ni  Ni4  1  0.43969701  0.50006896  0.56068128  1
  Ni  Ni5  1  0.50000972  0.56036578  0.43927285  1
  Ni  Ni6  1  0.56033664  0.50000934  0.43925558  1
  Ni  Ni7  1  0.49996187  0.43962317  0.43927944  1
  Ni  Ni8  1  0.43965001  0.50003273  0.43925296  1
  Ni  Ni9  1  0.62031255  0.49999601  0.49999650  1
  Ni  Ni10  1  0.50000935  0.62033779  0.49997711  1
  Ni  Ni11  1  0.49989663  0.37957478  0.50010581  1
  Ni  Ni12  1  0.37972497  0.50002559  0.49997402  1
  Ni  Ni13  1  0.43926603  0.56074930  0.37901246  1
  Ni  Ni14  1  0.56072015  0.56072318  0.37904227  1
  Ni  Ni15  1  0.56071488  0.43927625  0.37901416  1
  Ni  Ni16  1  0.43926869  0.43930299  0.37900066  1
  Ni  Ni17  1  0.43930735  0.56075538  0.62097348  1
  Ni  Ni18  1  0.56073394  0.56073587  0.62097641  1
  Ni  Ni19  1  0.56087988  0.43943195  0.62090498  1
  Ni  Ni20  1  0.43934001  0.43929286  0.62089177  1
  Ni  Ni21  1  0.37888859  0.56069924  0.56072143  1
  Ni  Ni22  1  0.56074948  0.37887814  0.56063487  1
  Ni  Ni23  1  0.43932651  0.62113013  0.56074375  1
  Ni  Ni24  1  0.62112789  0.56068932  0.56074169  1
  Ni  Ni25  1  0.56067796  0.62113239  0.56074543  1
  Ni  Ni26  1  0.62117119  0.43935527  0.56070015  1
  Ni  Ni27  1  0.43915011  0.37860485  0.56090076  1
  Ni  Ni28  1  0.37895081  0.43934752  0.56074951  1
  Ni  Ni29  1  0.37887105  0.56069118  0.43923820  1
  Ni  Ni30  1  0.62113547  0.56068495  0.43924693  1
  Ni  Ni31  1  0.56064035  0.37886273  0.43924114  1
  Ni  Ni32  1  0.56067564  0.62115118  0.43925242  1
  Ni  Ni33  1  0.43932311  0.62114053  0.43923947  1
  Ni  Ni34  1  0.62113282  0.43933119  0.43923613  1
  Ni  Ni35  1  0.43933889  0.37881125  0.43928298  1
  Ni  Ni36  1  0.37891410  0.43939538  0.43916060  1
  Ni  Ni37  1  0.62120046  0.37885392  0.49994357  1
  Ni  Ni38  1  0.62118564  0.62118512  0.50001022  1
  Ni  Ni39  1  0.37880257  0.62119789  0.49999149  1
  Ni  Ni40  1  0.37895484  0.37894502  0.49981658  1
  Ni  Ni41  1  0.50000215  0.56137811  0.68074993  1
  Ni  Ni42  1  0.56137752  0.50005230  0.68074683  1
  Ni  Ni43  1  0.50004366  0.43864012  0.68067204  1
  Ni  Ni44  1  0.43868895  0.50002176  0.68071835  1
  Ni  Ni45  1  0.56136159  0.49999712  0.31925399  1
  Ni  Ni46  1  0.50000457  0.56135425  0.31924395  1
  Ni  Ni47  1  0.49998187  0.43864861  0.31925355  1
  Ni  Ni48  1  0.43861525  0.50004187  0.31924016  1
  Ni  Ni49  1  0.49980007  0.31825931  0.56080541  1
  Ni  Ni50  1  0.31840924  0.50003277  0.56068284  1
  Ni  Ni51  1  0.50000004  0.68162339  0.56070943  1
  Ni  Ni52  1  0.68163271  0.50003539  0.56070763  1
  Ni  Ni53  1  0.49994801  0.31839342  0.43930790  1
  Ni  Ni54  1  0.31838405  0.49999298  0.43929936  1
  Ni  Ni55  1  0.49999899  0.68162535  0.43928857  1
  Ni  Ni56  1  0.68164098  0.50001784  0.43926563  1
  Ni  Ni57  1  0.37873852  0.56027031  0.68017174  1
  Ni  Ni58  1  0.43974267  0.62127734  0.68019724  1
  Ni  Ni59  1  0.56026451  0.62127040  0.68019765  1
  Ni  Ni60  1  0.56028099  0.37874589  0.68012997  1
  Ni  Ni61  1  0.62131350  0.56027612  0.68021731  1
  Ni  Ni62  1  0.62131141  0.43975576  0.68020297  1
  Ni  Ni63  1  0.37880060  0.43974697  0.68010913  1
  Ni  Ni64  1  0.43985795  0.37858107  0.67995424  1
  Ni  Ni65  1  0.56026674  0.37872180  0.31979339  1
  Ni  Ni66  1  0.37870812  0.56027601  0.31979531  1
  Ni  Ni67  1  0.56026939  0.62129815  0.31980685  1
  Ni  Ni68  1  0.43972511  0.62127031  0.31980664  1
  Ni  Ni69  1  0.62129091  0.43972974  0.31980538  1
  Ni  Ni70  1  0.62126855  0.56026653  0.31982080  1
  Ni  Ni71  1  0.43974731  0.37872025  0.31978079  1
  Ni  Ni72  1  0.37869574  0.43976780  0.31978510  1
  Ni  Ni73  1  0.56003489  0.31896624  0.37966739  1
  Ni  Ni74  1  0.31890940  0.56004203  0.37973472  1
  Ni  Ni75  1  0.44001580  0.31892902  0.37965142  1
  Ni  Ni76  1  0.31890939  0.43999687  0.37967756  1
  Ni  Ni77  1  0.31894969  0.56003710  0.62022099  1
  Ni  Ni78  1  0.56017962  0.31905141  0.62013471  1
  Ni  Ni79  1  0.68107789  0.56003635  0.37976172  1
  Ni  Ni80  1  0.68108130  0.43996499  0.37974053  1
  Ni  Ni81  1  0.43996609  0.68106931  0.37973722  1
  Ni  Ni82  1  0.56003638  0.68107538  0.37975094  1
  Ni  Ni83  1  0.43945118  0.31845452  0.62018933  1
  Ni  Ni84  1  0.31901617  0.44001033  0.62014381  1
  Ni  Ni85  1  0.56001681  0.68107316  0.62027994  1
  Ni  Ni86  1  0.68105764  0.56000338  0.62022336  1
  Ni  Ni87  1  0.68110214  0.43999495  0.62026898  1
  Ni  Ni88  1  0.43996532  0.68107145  0.62026959  1
  Ni  Ni89  1  0.62143188  0.31922729  0.55968983  1
  Ni  Ni90  1  0.31921098  0.62135580  0.55975044  1
  Ni  Ni91  1  0.68083791  0.37866519  0.55970468  1
  Ni  Ni92  1  0.31950050  0.37850162  0.55977572  1
  Ni  Ni93  1  0.37881357  0.31846527  0.56048786  1
  Ni  Ni94  1  0.62135479  0.68079421  0.55975698  1
  Ni  Ni95  1  0.68081462  0.62134941  0.55977377  1
  Ni  Ni96  1  0.37865008  0.68080837  0.55976090  1
  Ni  Ni97  1  0.62139091  0.31923194  0.44024612  1
  Ni  Ni98  1  0.31918965  0.62136790  0.44024565  1
  Ni  Ni99  1  0.68082205  0.37864449  0.44023005  1
  Ni  Ni100  1  0.37873383  0.31919018  0.44010242  1
  Ni  Ni101  1  0.31930637  0.37872662  0.44021572  1
  Ni  Ni102  1  0.68081551  0.62137299  0.44024889  1
  Ni  Ni103  1  0.62135119  0.68081269  0.44024164  1
  Ni  Ni104  1  0.37863422  0.68080443  0.44024573  1
  Ni  Ni105  1  0.50021032  0.26017234  0.49975024  1
  Ni  Ni106  1  0.26006157  0.49999526  0.50001918  1
  Ni  Ni107  1  0.49999749  0.73995117  0.49999231  1
  Ni  Ni108  1  0.73998553  0.50000772  0.49998722  1
  Ni  Ni109  1  0.49998347  0.31579231  0.68331768  1
  Ni  Ni110  1  0.31560705  0.50003279  0.68346092  1
  Ni  Ni111  1  0.68451666  0.50002669  0.68359150  1
  Ni  Ni112  1  0.49999236  0.68449766  0.68356141  1
  Ni  Ni113  1  0.50002716  0.31554676  0.31641529  1
  Ni  Ni114  1  0.31548868  0.50003747  0.31643525  1
  Ni  Ni115  1  0.68446654  0.50001574  0.31646838  1
  Ni  Ni116  1  0.50001212  0.68447327  0.31646544  1
  Ni  Ni117  1  0.43936391  0.56063042  0.26176209  1
  Ni  Ni118  1  0.56062299  0.56062522  0.26177379  1
  Ni  Ni119  1  0.56063735  0.43937159  0.26175981  1
  Ni  Ni120  1  0.43936009  0.43939044  0.26177350  1
  Ni  Ni121  1  0.43938695  0.56063381  0.73821628  1
  Ni  Ni122  1  0.56062375  0.56065578  0.73821978  1
  Ni  Ni123  1  0.56064941  0.43940013  0.73820158  1
  Ni  Ni124  1  0.43943925  0.43939673  0.73818594  1
  Ni  Ni125  1  0.26061264  0.56023864  0.56034122  1
  Ni  Ni126  1  0.56034996  0.26067360  0.56029632  1
  Ni  Ni127  1  0.43915394  0.26077330  0.56076558  1
  Ni  Ni128  1  0.26063096  0.43979480  0.56030975  1
  Ni  Ni129  1  0.73942018  0.56021499  0.56036377  1
  Ni  Ni130  1  0.73940484  0.43979168  0.56036431  1
  Ni  Ni131  1  0.43978546  0.73939172  0.56037071  1
  Ni  Ni132  1  0.56021131  0.73939368  0.56036936  1
  Ni  Ni133  1  0.26059337  0.56021381  0.43965034  1
  Ni  Ni134  1  0.56034299  0.26058877  0.43951847  1
  Ni  Ni135  1  0.26065046  0.43978952  0.43968104  1
  Ni  Ni136  1  0.43989538  0.26063284  0.43953060  1
  Ni  Ni137  1  0.56021018  0.73941610  0.43963274  1
  Ni  Ni138  1  0.73940919  0.56022186  0.43963163  1
  Ni  Ni139  1  0.73942661  0.43977736  0.43961259  1
  Ni  Ni140  1  0.43978477  0.73939425  0.43962569  1
  Ni  Ni141  1  0.74150215  0.37703459  0.49998194  1
  Ni  Ni142  1  0.62299577  0.25848160  0.49994462  1
  Ni  Ni143  1  0.25849615  0.62299427  0.49999528  1
  Ni  Ni144  1  0.74149832  0.62300241  0.49998406  1
  Ni  Ni145  1  0.37699723  0.25848859  0.49979102  1
  Ni  Ni146  1  0.62299024  0.74150859  0.50000124  1
  Ni  Ni147  1  0.25861229  0.37706621  0.50002897  1
  Ni  Ni148  1  0.37701910  0.74150270  0.49999707  1
  Ni  Ni149  1  0.62255984  0.31805437  0.68110162  1
  Ni  Ni150  1  0.31800735  0.62261056  0.68114755  1
  Ni  Ni151  1  0.68200281  0.37739178  0.68118119  1
  Ni  Ni152  1  0.37760405  0.31812867  0.68113262  1
  Ni  Ni153  1  0.31809885  0.37749966  0.68097480  1
  Ni  Ni154  1  0.68198109  0.62257453  0.68114263  1
  Ni  Ni155  1  0.62260587  0.68199878  0.68115454  1
  Ni  Ni156  1  0.37740650  0.68201462  0.68114421  1
  Ni  Ni157  1  0.62266451  0.31806349  0.31880107  1
  Ni  Ni158  1  0.37741947  0.31801795  0.31882613  1
  Ni  Ni159  1  0.31797729  0.62259540  0.31883541  1
  Ni  Ni160  1  0.68202003  0.37741465  0.31883768  1
  Ni  Ni161  1  0.31799615  0.37738624  0.31882242  1
  Ni  Ni162  1  0.37738478  0.68199301  0.31885063  1
  Ni  Ni163  1  0.68197731  0.62260756  0.31888086  1
  Ni  Ni164  1  0.62258477  0.68200180  0.31888215  1
  Ni  Ni165  1  0.31813825  0.31812295  0.37854526  1
  Ni  Ni166  1  0.68193714  0.31813896  0.37854018  1
  Ni  Ni167  1  0.31807739  0.68191175  0.37854207  1
  Ni  Ni168  1  0.31807220  0.31811551  0.62132709  1
  Ni  Ni169  1  0.68189206  0.68191897  0.37858712  1
  Ni  Ni170  1  0.68190707  0.31812137  0.62140915  1
  Ni  Ni171  1  0.31811752  0.68190229  0.62142206  1
  Ni  Ni172  1  0.68189678  0.68188228  0.62146012  1
  Ni  Ni173  1  0.44002068  0.50002345  0.79695335  1
  Ni  Ni174  1  0.49998986  0.55997518  0.79699445  1
  Ni  Ni175  1  0.50003525  0.44006865  0.79697873  1
  Ni  Ni176  1  0.55996545  0.50008081  0.79697394  1
  Ni  Ni177  1  0.44001547  0.50000094  0.20300950  1
  Ni  Ni178  1  0.55997462  0.50000128  0.20303491  1
  Ni  Ni179  1  0.50000407  0.44004960  0.20301166  1
  Ni  Ni180  1  0.50000577  0.55997197  0.20302543  1
  Ni  Ni181  1  0.56242080  0.26289709  0.67887821  1
  Ni  Ni182  1  0.26279712  0.56247576  0.67898027  1
  Ni  Ni183  1  0.26283820  0.43754262  0.67889077  1
  Ni  Ni184  1  0.43778166  0.26300025  0.67884788  1
  Ni  Ni185  1  0.56249467  0.73723595  0.67897342  1
  Ni  Ni186  1  0.43750418  0.73724874  0.67899959  1
  Ni  Ni187  1  0.73722603  0.43750032  0.67902894  1
  Ni  Ni188  1  0.73724806  0.56248674  0.67899687  1
  Ni  Ni189  1  0.56257862  0.26283692  0.32093970  1
  Ni  Ni190  1  0.26274293  0.56250999  0.32100264  1
  Ni  Ni191  1  0.26275648  0.43752243  0.32097380  1
  Ni  Ni192  1  0.43755183  0.26277549  0.32097299  1
  Ni  Ni193  1  0.56249398  0.73724140  0.32101268  1
  Ni  Ni194  1  0.73721827  0.56252095  0.32103547  1
  Ni  Ni195  1  0.43750536  0.73720865  0.32101197  1
  Ni  Ni196  1  0.73723457  0.43752812  0.32100571  1
  Ni  Ni197  1  0.32012484  0.56238482  0.26375242  1
  Ni  Ni198  1  0.56237649  0.32021470  0.26376076  1
  Ni  Ni199  1  0.32015057  0.43764770  0.26376936  1
  Ni  Ni200  1  0.43764003  0.32018592  0.26378012  1
  Ni  Ni201  1  0.56237109  0.67986262  0.26378107  1
  Ni  Ni202  1  0.67985722  0.43764440  0.26378160  1
  Ni  Ni203  1  0.67982293  0.56238023  0.26380836  1
  Ni  Ni204  1  0.43762733  0.67982662  0.26381302  1
  Ni  Ni205  1  0.56231880  0.32019745  0.73621025  1
  Ni  Ni206  1  0.32017978  0.56237324  0.73619564  1
  Ni  Ni207  1  0.43766838  0.32020723  0.73615242  1
  Ni  Ni208  1  0.32020130  0.43765869  0.73615376  1
  Ni  Ni209  1  0.67985581  0.56239307  0.73623020  1
  Ni  Ni210  1  0.56237257  0.67982773  0.73618883  1
  Ni  Ni211  1  0.43763963  0.67982185  0.73620280  1
  Ni  Ni212  1  0.67981134  0.43763348  0.73621297  1
  Ni  Ni213  1  0.79743201  0.49999869  0.55915004  1
  Ni  Ni214  1  0.50002932  0.20291163  0.55906670  1
  Ni  Ni215  1  0.49999837  0.79742593  0.55914850  1
  Ni  Ni216  1  0.67936127  0.26148454  0.56197854  1
  Ni  Ni217  1  0.32068867  0.26163084  0.56173411  1
  Ni  Ni218  1  0.73851084  0.32066249  0.56197424  1
  Ni  Ni219  1  0.20257381  0.50001560  0.55914529  1
  Ni  Ni220  1  0.26159919  0.32065821  0.56185809  1
  Ni  Ni221  1  0.32064294  0.73851663  0.56199353  1
  Ni  Ni222  1  0.26149200  0.67935516  0.56199322  1
  Ni  Ni223  1  0.73847764  0.67932983  0.56199733  1
  Ni  Ni224  1  0.67935402  0.73846756  0.56199942  1
  Ni  Ni225  1  0.67938950  0.26152576  0.43796081  1
  Ni  Ni226  1  0.79743911  0.49999602  0.44083833  1
  Ni  Ni227  1  0.50010598  0.20254787  0.44070572  1
  Ni  Ni228  1  0.50000047  0.79744115  0.44085869  1
  Ni  Ni229  1  0.73853065  0.32063309  0.43799923  1
  Ni  Ni230  1  0.20259259  0.50001731  0.44085812  1
  Ni  Ni231  1  0.26148959  0.67937835  0.43802154  1
  Ni  Ni232  1  0.32071634  0.26152518  0.43802549  1
  Ni  Ni233  1  0.26165103  0.32078179  0.43809229  1
  Ni  Ni234  1  0.32063236  0.73851276  0.43801938  1
  Ni  Ni235  1  0.73852679  0.67939736  0.43802599  1
  Ni  Ni236  1  0.67935570  0.73851347  0.43803805  1
  Ni  Ni237  1  0.38263015  0.56085827  0.79618140  1
  Ni  Ni238  1  0.56087385  0.61731097  0.79623577  1
  Ni  Ni239  1  0.43913061  0.61732319  0.79620631  1
  Ni  Ni240  1  0.61740311  0.56088588  0.79622242  1
  Ni  Ni241  1  0.61728386  0.43914316  0.79619930  1
  Ni  Ni242  1  0.56084309  0.38264666  0.79619615  1
  Ni  Ni243  1  0.38261911  0.43905926  0.79608163  1
  Ni  Ni244  1  0.43919045  0.38265347  0.79617045  1
  Ni  Ni245  1  0.38264314  0.56086959  0.20376314  1
  Ni  Ni246  1  0.61737907  0.43915524  0.20379417  1
  Ni  Ni247  1  0.43915533  0.61732374  0.20380459  1
  Ni  Ni248  1  0.43911797  0.38268600  0.20378352  1
  Ni  Ni249  1  0.56086897  0.38266315  0.20377588  1
  Ni  Ni250  1  0.56085813  0.61735376  0.20378216  1
  Ni  Ni251  1  0.61733356  0.56087544  0.20381374  1
  Ni  Ni252  1  0.38263488  0.43915555  0.20379048  1
  Ni  Ni253  1  0.56164411  0.20273315  0.38403392  1
  Ni  Ni254  1  0.20277468  0.43845944  0.38426849  1
  Ni  Ni255  1  0.43847790  0.79726501  0.38422730  1
  Ni  Ni256  1  0.79727122  0.43847725  0.38419880  1
  Ni  Ni257  1  0.79724385  0.56155803  0.38423479  1
  Ni  Ni258  1  0.43855546  0.20278801  0.38404094  1
  Ni  Ni259  1  0.56151743  0.79726126  0.38420736  1
  Ni  Ni260  1  0.56143240  0.20286876  0.61572254  1
  Ni  Ni261  1  0.20272883  0.56153421  0.38421223  1
  Ni  Ni262  1  0.56153440  0.79722398  0.61578873  1
  Ni  Ni263  1  0.79724774  0.56151975  0.61578889  1
  Ni  Ni264  1  0.43847829  0.79725824  0.61577399  1
  Ni  Ni265  1  0.20276332  0.56153082  0.61577728  1
  Ni  Ni266  1  0.43877414  0.20298605  0.61529716  1
  Ni  Ni267  1  0.20281767  0.43842018  0.61576999  1
  Ni  Ni268  1  0.79725264  0.43847101  0.61578642  1
  Ni  Ni269  1  0.79546514  0.38051632  0.55896591  1
  Ni  Ni270  1  0.61955735  0.20451638  0.55895112  1
  Ni  Ni271  1  0.38051334  0.79548836  0.55897740  1
  Ni  Ni272  1  0.38075750  0.20480716  0.55866464  1
  Ni  Ni273  1  0.20450327  0.61950321  0.55898614  1
  Ni  Ni274  1  0.79545918  0.61947325  0.55896101  1
  Ni  Ni275  1  0.61948825  0.79549004  0.55898694  1
  Ni  Ni276  1  0.20451104  0.38046307  0.55890704  1
  Ni  Ni277  1  0.79551161  0.38050705  0.44102924  1
  Ni  Ni278  1  0.61953139  0.20452428  0.44092687  1
  Ni  Ni279  1  0.38051479  0.79548527  0.44101911  1
  Ni  Ni280  1  0.79549658  0.61952007  0.44103331  1
  Ni  Ni281  1  0.20449036  0.61949743  0.44103350  1
  Ni  Ni282  1  0.61948366  0.79550718  0.44103407  1
  Ni  Ni283  1  0.38071142  0.20450518  0.44096580  1
  Ni  Ni284  1  0.20452405  0.38050068  0.44106176  1
  H  H285  1  0.34440221  0.22563761  0.65555065  1
  Pt  Pt286  1  0.56051202  0.56051754  0.49997201  1
  Pt  Pt287  1  0.43950368  0.56054490  0.49996905  1
  Pt  Pt288  1  0.56047943  0.43949318  0.49995416  1
  Pt  Pt289  1  0.43950227  0.43947422  0.50003950  1
  Pt  Pt290  1  0.49998637  0.49999767  0.37876959  1
  Pt  Pt291  1  0.50002822  0.50001826  0.62120443  1
  Pt  Pt292  1  0.62119147  0.49999468  0.37911534  1
  Pt  Pt293  1  0.50000463  0.62119742  0.37910168  1
  Pt  Pt294  1  0.50000497  0.62121014  0.62088403  1
  Pt  Pt295  1  0.62122472  0.50000392  0.62090481  1
  Pt  Pt296  1  0.49998246  0.37881441  0.37911937  1
  Pt  Pt297  1  0.37877777  0.50002900  0.37907971  1
  Pt  Pt298  1  0.50017173  0.37896399  0.62064805  1
  Pt  Pt299  1  0.37887854  0.50001507  0.62084463  1
  Pt  Pt300  1  0.31959136  0.56056636  0.49998153  1
  Pt  Pt301  1  0.56057883  0.31960932  0.49997985  1
  Pt  Pt302  1  0.43919399  0.31941594  0.50016715  1
  Pt  Pt303  1  0.31970003  0.43942057  0.50004066  1
  Pt  Pt304  1  0.68043120  0.56056346  0.49999679  1
  Pt  Pt305  1  0.56056841  0.68042485  0.50000098  1
  Pt  Pt306  1  0.68044514  0.43947960  0.49997715  1
  Pt  Pt307  1  0.43942896  0.68041626  0.49999980  1
  Pt  Pt308  1  0.62139176  0.62139941  0.37911184  1
  Pt  Pt309  1  0.62139095  0.62140050  0.62089995  1
  Pt  Pt310  1  0.62140248  0.37859589  0.37910269  1
  Pt  Pt311  1  0.37858229  0.62141198  0.37910230  1
  Pt  Pt312  1  0.62146980  0.37867169  0.62086771  1
  Pt  Pt313  1  0.37860866  0.62139634  0.62089538  1
  Pt  Pt314  1  0.37863790  0.37864124  0.37905517  1
  Pt  Pt315  1  0.37866504  0.37848149  0.62088258  1
  Pt  Pt316  1  0.49998953  0.49999291  0.26111119  1
  Pt  Pt317  1  0.50001969  0.50000511  0.73886534  1
  Pt  Pt318  1  0.68486122  0.31515009  0.49997713  1
  Pt  Pt319  1  0.31552356  0.31537623  0.49999783  1
  Pt  Pt320  1  0.31515645  0.68485117  0.50001093  1
  Pt  Pt321  1  0.68483141  0.68482880  0.49999727  1
  Pt  Pt322  1  0.50001695  0.62473718  0.25757246  1
  Pt  Pt323  1  0.62473630  0.50000828  0.25756617  1
  Pt  Pt324  1  0.62474412  0.50002114  0.74246396  1
  Pt  Pt325  1  0.50001876  0.62474515  0.74246480  1
  Pt  Pt326  1  0.49999143  0.37529540  0.25751761  1
  Pt  Pt327  1  0.37524739  0.50003185  0.25754173  1
  Pt  Pt328  1  0.50000180  0.37536970  0.74237937  1
  Pt  Pt329  1  0.37529307  0.50001625  0.74239516  1
  Pt  Pt330  1  0.74406339  0.50000440  0.37541741  1
  Pt  Pt331  1  0.49999879  0.74403448  0.37543234  1
  Pt  Pt332  1  0.74404710  0.49998930  0.62459346  1
  Pt  Pt333  1  0.49998590  0.74404399  0.62457777  1
  Pt  Pt334  1  0.50010854  0.25599547  0.37538908  1
  Pt  Pt335  1  0.25594516  0.50001307  0.37542012  1
  Pt  Pt336  1  0.25598262  0.50001340  0.62453991  1
  Pt  Pt337  1  0.50004380  0.25628569  0.62438885  1
  Pt  Pt338  1  0.62256479  0.62258544  0.25967078  1
  Pt  Pt339  1  0.62257661  0.62258859  0.74035813  1
  Pt  Pt340  1  0.62259808  0.37745075  0.25962062  1
  Pt  Pt341  1  0.37739901  0.62257105  0.25964140  1
  Pt  Pt342  1  0.62255119  0.37741471  0.74033463  1
  Pt  Pt343  1  0.37742904  0.62258947  0.74032838  1
  Pt  Pt344  1  0.37742004  0.37745676  0.25965883  1
  Pt  Pt345  1  0.37751445  0.37753308  0.74021948  1
  Pt  Pt346  1  0.74115944  0.62274526  0.37806769  1
  Pt  Pt347  1  0.62271888  0.74119905  0.37806961  1
  Pt  Pt348  1  0.74117536  0.62270809  0.62199536  1
  Pt  Pt349  1  0.62272250  0.74114363  0.62193727  1
  Pt  Pt350  1  0.74120768  0.37729458  0.37805156  1
  Pt  Pt351  1  0.37728145  0.74116415  0.37805786  1
  Pt  Pt352  1  0.74115299  0.37729860  0.62196035  1
  Pt  Pt353  1  0.37728464  0.74118057  0.62194599  1
  Pt  Pt354  1  0.25883150  0.62271441  0.37807964  1
  Pt  Pt355  1  0.62274186  0.25891546  0.37801573  1
  Pt  Pt356  1  0.62274210  0.25884124  0.62194700  1
  Pt  Pt357  1  0.25885432  0.62272178  0.62194240  1
  Pt  Pt358  1  0.25887631  0.37730800  0.37806923  1
  Pt  Pt359  1  0.37730961  0.25881997  0.37799446  1
  Pt  Pt360  1  0.25893833  0.37737068  0.62178643  1
  Pt  Pt361  1  0.37441569  0.25549482  0.62458969  1
  Pt  Pt362  1  0.56069585  0.19961619  0.49999472  1
  Pt  Pt363  1  0.43934914  0.80035185  0.49999998  1
  Pt  Pt364  1  0.43964325  0.19992842  0.50005769  1
  Pt  Pt365  1  0.56065103  0.80034787  0.50000922  1
  Pt  Pt366  1  0.19965313  0.43936423  0.50000047  1
  Pt  Pt367  1  0.80034816  0.43935002  0.50000171  1
  Pt  Pt368  1  0.80036645  0.56065124  0.49999073  1
  Pt  Pt369  1  0.19962514  0.56066936  0.50000997  1
