# generated using pymatgen
data_Ni285HPt84
_symmetry_space_group_name_H-M   'P 1'
_cell_length_a   30.00000000
_cell_length_b   30.00000000
_cell_length_c   30.00000000
_cell_angle_alpha   90.00000000
_cell_angle_beta   90.00000000
_cell_angle_gamma   90.00000000
_symmetry_Int_Tables_number   1
_chemical_formula_structural   Ni285HPt84
_chemical_formula_sum   'Ni285 H1 Pt84'
_cell_volume   27000.00000000
_cell_formula_units_Z   1
loop_
 _symmetry_equiv_pos_site_id
 _symmetry_equiv_pos_as_xyz
  1  'x, y, z'
loop_
 _atom_site_type_symbol
 _atom_site_label
 _atom_site_symmetry_multiplicity
 _atom_site_fract_x
 _atom_site_fract_y
 _atom_site_fract_z
 _atom_site_occupancy
  Ni  Ni0  1  0.49995874  0.50003935  0.49999772  1
  Ni  Ni1  1  0.49997307  0.56038795  0.56072321  1
  Ni  Ni2  1  0.56036781  0.50002827  0.56074548  1
  Ni  Ni3  1  0.49997536  0.43967178  0.56072968  1
  Ni  Ni4  1  0.43959953  0.50004632  0.56074000  1
  Ni  Ni5  1  0.49996968  0.56038020  0.43928778  1
  Ni  Ni6  1  0.56036542  0.50003009  0.43925404  1
  Ni  Ni7  1  0.49997464  0.43967179  0.43926403  1
  Ni  Ni8  1  0.43959945  0.50004783  0.43925954  1
  Ni  Ni9  1  0.62033137  0.50008762  0.50000152  1
  Ni  Ni10  1  0.50000827  0.62034149  0.50000104  1
  Ni  Ni11  1  0.50000194  0.37974460  0.49998838  1
  Ni  Ni12  1  0.37964480  0.50003566  0.50000079  1
  Ni  Ni13  1  0.43915443  0.56085190  0.37897854  1
  Ni  Ni14  1  0.56081369  0.56080610  0.37899122  1
  Ni  Ni15  1  0.56084201  0.43918071  0.37898966  1
  Ni  Ni16  1  0.43913324  0.43918254  0.37897063  1
  Ni  Ni17  1  0.43915167  0.56085634  0.62102057  1
  Ni  Ni18  1  0.56081479  0.56080782  0.62101133  1
  Ni  Ni19  1  0.56083981  0.43918508  0.62101274  1
  Ni  Ni20  1  0.43913232  0.43918626  0.62103447  1
  Ni  Ni21  1  0.37881309  0.56078896  0.56085880  1
  Ni  Ni22  1  0.56077230  0.37888984  0.56085587  1
  Ni  Ni23  1  0.43924655  0.62118995  0.56086002  1
  Ni  Ni24  1  0.62124243  0.56070217  0.56076183  1
  Ni  Ni25  1  0.56077125  0.62114817  0.56084421  1
  Ni  Ni26  1  0.62116015  0.43929540  0.56085442  1
  Ni  Ni27  1  0.43923849  0.37887821  0.56085483  1
  Ni  Ni28  1  0.37881057  0.43927493  0.56086166  1
  Ni  Ni29  1  0.37881484  0.56077608  0.43915183  1
  Ni  Ni30  1  0.62123735  0.56070355  0.43923695  1
  Ni  Ni31  1  0.56077331  0.37889220  0.43913333  1
  Ni  Ni32  1  0.56077211  0.62113864  0.43915601  1
  Ni  Ni33  1  0.43925300  0.62118033  0.43914550  1
  Ni  Ni34  1  0.62115793  0.43928786  0.43913934  1
  Ni  Ni35  1  0.43923278  0.37887337  0.43914275  1
  Ni  Ni36  1  0.37881200  0.43927236  0.43914030  1
  Ni  Ni37  1  0.62113798  0.37867768  0.49998902  1
  Ni  Ni38  1  0.62126852  0.62107720  0.50000168  1
  Ni  Ni39  1  0.37879508  0.62122473  0.50000251  1
  Ni  Ni40  1  0.37877493  0.37881858  0.50000554  1
  Ni  Ni41  1  0.49997989  0.56141875  0.68062956  1
  Ni  Ni42  1  0.56137195  0.49996375  0.68063363  1
  Ni  Ni43  1  0.49997311  0.43857750  0.68060914  1
  Ni  Ni44  1  0.43854913  0.50002860  0.68062293  1
  Ni  Ni45  1  0.56137069  0.49996077  0.31936460  1
  Ni  Ni46  1  0.49998416  0.56140858  0.31937065  1
  Ni  Ni47  1  0.49996927  0.43857525  0.31938959  1
  Ni  Ni48  1  0.43855884  0.50002199  0.31937845  1
  Ni  Ni49  1  0.50000624  0.31842654  0.56068786  1
  Ni  Ni50  1  0.31837432  0.50002196  0.56071931  1
  Ni  Ni51  1  0.50004633  0.68158489  0.56069676  1
  Ni  Ni52  1  0.68182597  0.50010460  0.56056619  1
  Ni  Ni53  1  0.50000457  0.31842550  0.43930504  1
  Ni  Ni54  1  0.31837741  0.50002226  0.43928843  1
  Ni  Ni55  1  0.50004457  0.68158473  0.43929877  1
  Ni  Ni56  1  0.68181501  0.50009685  0.43942115  1
  Ni  Ni57  1  0.37855981  0.56037387  0.68013106  1
  Ni  Ni58  1  0.43964752  0.62142995  0.68010917  1
  Ni  Ni59  1  0.56033144  0.62140924  0.68013887  1
  Ni  Ni60  1  0.56032642  0.37858273  0.68011653  1
  Ni  Ni61  1  0.62131955  0.56026774  0.68020585  1
  Ni  Ni62  1  0.62140459  0.43966993  0.68012001  1
  Ni  Ni63  1  0.37853938  0.43966154  0.68013635  1
  Ni  Ni64  1  0.43965101  0.37859286  0.68011166  1
  Ni  Ni65  1  0.56032984  0.37857920  0.31988226  1
  Ni  Ni66  1  0.37857460  0.56037033  0.31986820  1
  Ni  Ni67  1  0.56033108  0.62140657  0.31985590  1
  Ni  Ni68  1  0.43965715  0.62141844  0.31989670  1
  Ni  Ni69  1  0.62140755  0.43967227  0.31986975  1
  Ni  Ni70  1  0.62132620  0.56027005  0.31978800  1
  Ni  Ni71  1  0.43964820  0.37858988  0.31989330  1
  Ni  Ni72  1  0.37853722  0.43965714  0.31987109  1
  Ni  Ni73  1  0.56006311  0.31884459  0.37973821  1
  Ni  Ni74  1  0.31883593  0.56008044  0.37972988  1
  Ni  Ni75  1  0.43993426  0.31886403  0.37975514  1
  Ni  Ni76  1  0.31882471  0.43996516  0.37972364  1
  Ni  Ni77  1  0.31882624  0.56009363  0.62028212  1
  Ni  Ni78  1  0.56006114  0.31885457  0.62024983  1
  Ni  Ni79  1  0.68103601  0.55998567  0.37957154  1
  Ni  Ni80  1  0.68116076  0.43992966  0.37978362  1
  Ni  Ni81  1  0.43994710  0.68115148  0.37974358  1
  Ni  Ni82  1  0.56012593  0.68107953  0.37974977  1
  Ni  Ni83  1  0.43993143  0.31887322  0.62024589  1
  Ni  Ni84  1  0.31881361  0.43996930  0.62028433  1
  Ni  Ni85  1  0.56013119  0.68108522  0.62024729  1
  Ni  Ni86  1  0.68103587  0.55998295  0.62042490  1
  Ni  Ni87  1  0.68116487  0.43993713  0.62019425  1
  Ni  Ni88  1  0.43994912  0.68116365  0.62026080  1
  Ni  Ni89  1  0.62140931  0.31911597  0.55977528  1
  Ni  Ni90  1  0.31914311  0.62145654  0.55976107  1
  Ni  Ni91  1  0.68083777  0.37856771  0.55975431  1
  Ni  Ni92  1  0.31913641  0.37860155  0.55975086  1
  Ni  Ni93  1  0.37856433  0.31919343  0.55975539  1
  Ni  Ni94  1  0.62156500  0.68074870  0.55975572  1
  Ni  Ni95  1  0.68094370  0.62120648  0.55969894  1
  Ni  Ni96  1  0.37857311  0.68085673  0.55974087  1
  Ni  Ni97  1  0.62140929  0.31911370  0.44021009  1
  Ni  Ni98  1  0.31914460  0.62144288  0.44024402  1
  Ni  Ni99  1  0.68083041  0.37856705  0.44023566  1
  Ni  Ni100  1  0.37856430  0.31918841  0.44026029  1
  Ni  Ni101  1  0.31914450  0.37859527  0.44025656  1
  Ni  Ni102  1  0.68094297  0.62120733  0.44029247  1
  Ni  Ni103  1  0.62155647  0.68074188  0.44023545  1
  Ni  Ni104  1  0.37857458  0.68085377  0.44025527  1
  Ni  Ni105  1  0.50001223  0.26020698  0.49999892  1
  Ni  Ni106  1  0.26009338  0.50003605  0.50001230  1
  Ni  Ni107  1  0.50010577  0.73985196  0.49998959  1
  Ni  Ni108  1  0.74061489  0.50042481  0.49998726  1
  Ni  Ni109  1  0.49999678  0.31530021  0.68355449  1
  Ni  Ni110  1  0.31524445  0.50002405  0.68357235  1
  Ni  Ni111  1  0.68460318  0.49988601  0.68370008  1
  Ni  Ni112  1  0.50003502  0.68471677  0.68353578  1
  Ni  Ni113  1  0.50000032  0.31529295  0.31644791  1
  Ni  Ni114  1  0.31524811  0.50002061  0.31642860  1
  Ni  Ni115  1  0.68459814  0.49989418  0.31628130  1
  Ni  Ni116  1  0.50003938  0.68472164  0.31645660  1
  Ni  Ni117  1  0.43931890  0.56066307  0.26201792  1
  Ni  Ni118  1  0.56058657  0.56063131  0.26197071  1
  Ni  Ni119  1  0.56057653  0.43930614  0.26198351  1
  Ni  Ni120  1  0.43930441  0.43933768  0.26204610  1
  Ni  Ni121  1  0.43931090  0.56067806  0.73798396  1
  Ni  Ni122  1  0.56058544  0.56062951  0.73801934  1
  Ni  Ni123  1  0.56057595  0.43930306  0.73801212  1
  Ni  Ni124  1  0.43929477  0.43934006  0.73796422  1
  Ni  Ni125  1  0.26060041  0.56028686  0.56031313  1
  Ni  Ni126  1  0.56022118  0.26061317  0.56028814  1
  Ni  Ni127  1  0.43974786  0.26065576  0.56028531  1
  Ni  Ni128  1  0.26059286  0.43976828  0.56030074  1
  Ni  Ni129  1  0.73982678  0.56019268  0.56001862  1
  Ni  Ni130  1  0.73931958  0.43980605  0.56008113  1
  Ni  Ni131  1  0.43980097  0.73937706  0.56028997  1
  Ni  Ni132  1  0.56037821  0.73930524  0.56034221  1
  Ni  Ni133  1  0.26060379  0.56028543  0.43970502  1
  Ni  Ni134  1  0.56021805  0.26060831  0.43971394  1
  Ni  Ni135  1  0.26060490  0.43976606  0.43971018  1
  Ni  Ni136  1  0.43975310  0.26065468  0.43972429  1
  Ni  Ni137  1  0.56037807  0.73930281  0.43965193  1
  Ni  Ni138  1  0.73981961  0.56018065  0.43994240  1
  Ni  Ni139  1  0.73931410  0.43980525  0.43990007  1
  Ni  Ni140  1  0.43979567  0.73937921  0.43970439  1
  Ni  Ni141  1  0.74138271  0.37693843  0.49999008  1
  Ni  Ni142  1  0.62303553  0.25847964  0.49999890  1
  Ni  Ni143  1  0.25849116  0.62307597  0.50001198  1
  Ni  Ni144  1  0.74182614  0.62277206  0.49998812  1
  Ni  Ni145  1  0.37694954  0.25856587  0.50001884  1
  Ni  Ni146  1  0.62325977  0.74146046  0.49999641  1
  Ni  Ni147  1  0.25851653  0.37693662  0.50000615  1
  Ni  Ni148  1  0.37695630  0.74147341  0.50000311  1
  Ni  Ni149  1  0.62271665  0.31776675  0.68121957  1
  Ni  Ni150  1  0.31773594  0.62281811  0.68125874  1
  Ni  Ni151  1  0.68216867  0.37715242  0.68128973  1
  Ni  Ni152  1  0.37721101  0.31778257  0.68121268  1
  Ni  Ni153  1  0.31771316  0.37722127  0.68124616  1
  Ni  Ni154  1  0.68224815  0.62273258  0.68141421  1
  Ni  Ni155  1  0.62284706  0.68211036  0.68121923  1
  Ni  Ni156  1  0.37720469  0.68227696  0.68125225  1
  Ni  Ni157  1  0.62271767  0.31775253  0.31876444  1
  Ni  Ni158  1  0.37719985  0.31777171  0.31879643  1
  Ni  Ni159  1  0.31775587  0.62281054  0.31875923  1
  Ni  Ni160  1  0.68216804  0.37714993  0.31868570  1
  Ni  Ni161  1  0.31771462  0.37720777  0.31875826  1
  Ni  Ni162  1  0.37720588  0.68224894  0.31876622  1
  Ni  Ni163  1  0.68223608  0.62273037  0.31858455  1
  Ni  Ni164  1  0.62284403  0.68211035  0.31877705  1
  Ni  Ni165  1  0.31787428  0.31789291  0.37843353  1
  Ni  Ni166  1  0.68201513  0.31781480  0.37837163  1
  Ni  Ni167  1  0.31788939  0.68211366  0.37843717  1
  Ni  Ni168  1  0.31787650  0.31790386  0.62156976  1
  Ni  Ni169  1  0.68218537  0.68190795  0.37841616  1
  Ni  Ni170  1  0.68201568  0.31783540  0.62162057  1
  Ni  Ni171  1  0.31787804  0.68213451  0.62158132  1
  Ni  Ni172  1  0.68219457  0.68191117  0.62158291  1
  Ni  Ni173  1  0.43994901  0.49997190  0.79671734  1
  Ni  Ni174  1  0.49993237  0.56004370  0.79672975  1
  Ni  Ni175  1  0.49994276  0.43995652  0.79672951  1
  Ni  Ni176  1  0.55987253  0.49994294  0.79678376  1
  Ni  Ni177  1  0.43995752  0.49996648  0.20327332  1
  Ni  Ni178  1  0.55987497  0.49994441  0.20320261  1
  Ni  Ni179  1  0.49994848  0.43994490  0.20326694  1
  Ni  Ni180  1  0.49993501  0.56003954  0.20325887  1
  Ni  Ni181  1  0.56252538  0.26262622  0.67888815  1
  Ni  Ni182  1  0.26262184  0.56258874  0.67890674  1
  Ni  Ni183  1  0.26260934  0.43744942  0.67889974  1
  Ni  Ni184  1  0.43743194  0.26267623  0.67885730  1
  Ni  Ni185  1  0.56263358  0.73729669  0.67889931  1
  Ni  Ni186  1  0.43747315  0.73735205  0.67885744  1
  Ni  Ni187  1  0.73722923  0.43739609  0.67893112  1
  Ni  Ni188  1  0.73724878  0.56232236  0.67908446  1
  Ni  Ni189  1  0.56252117  0.26261311  0.32110368  1
  Ni  Ni190  1  0.26264054  0.56258468  0.32110875  1
  Ni  Ni191  1  0.26263082  0.43745231  0.32111688  1
  Ni  Ni192  1  0.43743368  0.26267185  0.32114551  1
  Ni  Ni193  1  0.56262934  0.73729569  0.32110283  1
  Ni  Ni194  1  0.73726060  0.56233663  0.32090421  1
  Ni  Ni195  1  0.43746664  0.73733747  0.32114706  1
  Ni  Ni196  1  0.73722921  0.43738805  0.32103347  1
  Ni  Ni197  1  0.32002951  0.56244481  0.26388394  1
  Ni  Ni198  1  0.56239358  0.32003615  0.26388163  1
  Ni  Ni199  1  0.32001954  0.43757153  0.26388564  1
  Ni  Ni200  1  0.43754746  0.32005928  0.26392186  1
  Ni  Ni201  1  0.56242989  0.67995087  0.26387028  1
  Ni  Ni202  1  0.67987964  0.43753907  0.26378463  1
  Ni  Ni203  1  0.67982339  0.56234306  0.26375883  1
  Ni  Ni204  1  0.43755553  0.67994483  0.26391726  1
  Ni  Ni205  1  0.56239608  0.32005080  0.73610714  1
  Ni  Ni206  1  0.32001172  0.56244757  0.73613057  1
  Ni  Ni207  1  0.43754270  0.32005873  0.73608979  1
  Ni  Ni208  1  0.32001465  0.43757748  0.73613193  1
  Ni  Ni209  1  0.67981989  0.56233758  0.73622327  1
  Ni  Ni210  1  0.56243331  0.67995115  0.73612823  1
  Ni  Ni211  1  0.43756153  0.67996999  0.73609203  1
  Ni  Ni212  1  0.67988015  0.43753342  0.73618872  1
  Ni  Ni213  1  0.79750582  0.49990493  0.55907907  1
  Ni  Ni214  1  0.49999374  0.20260833  0.55891993  1
  Ni  Ni215  1  0.50015170  0.79733665  0.55887554  1
  Ni  Ni216  1  0.67943944  0.26136237  0.56201592  1
  Ni  Ni217  1  0.32050099  0.26139434  0.56199916  1
  Ni  Ni218  1  0.73850763  0.32044079  0.56206457  1
  Ni  Ni219  1  0.20256552  0.50002866  0.55890087  1
  Ni  Ni220  1  0.26138273  0.32049761  0.56201718  1
  Ni  Ni221  1  0.32049558  0.73861139  0.56199535  1
  Ni  Ni222  1  0.26138111  0.67951584  0.56200280  1
  Ni  Ni223  1  0.73862383  0.67904340  0.56191689  1
  Ni  Ni224  1  0.67968599  0.73851902  0.56210075  1
  Ni  Ni225  1  0.67942891  0.26135399  0.43798373  1
  Ni  Ni226  1  0.79750934  0.49988737  0.44088266  1
  Ni  Ni227  1  0.49999686  0.20260052  0.44108949  1
  Ni  Ni228  1  0.50014288  0.79734131  0.44111299  1
  Ni  Ni229  1  0.73850236  0.32043058  0.43792434  1
  Ni  Ni230  1  0.20257660  0.50002723  0.44111454  1
  Ni  Ni231  1  0.26138190  0.67950139  0.43799899  1
  Ni  Ni232  1  0.32051214  0.26140090  0.43801357  1
  Ni  Ni233  1  0.26140045  0.32049937  0.43799740  1
  Ni  Ni234  1  0.32050079  0.73860574  0.43800079  1
  Ni  Ni235  1  0.73862161  0.67904703  0.43807237  1
  Ni  Ni236  1  0.67968038  0.73851137  0.43789072  1
  Ni  Ni237  1  0.38269054  0.56082373  0.79603432  1
  Ni  Ni238  1  0.56074906  0.61744160  0.79600487  1
  Ni  Ni239  1  0.43916582  0.61741744  0.79600541  1
  Ni  Ni240  1  0.61718899  0.56078229  0.79610949  1
  Ni  Ni241  1  0.61717112  0.43909652  0.79613546  1
  Ni  Ni242  1  0.56071174  0.38256167  0.79603447  1
  Ni  Ni243  1  0.38259130  0.43920778  0.79598470  1
  Ni  Ni244  1  0.43914348  0.38268197  0.79600103  1
  Ni  Ni245  1  0.38271302  0.56080960  0.20396591  1
  Ni  Ni246  1  0.61717542  0.43909815  0.20385411  1
  Ni  Ni247  1  0.43917384  0.61739457  0.20400104  1
  Ni  Ni248  1  0.43914396  0.38267255  0.20401295  1
  Ni  Ni249  1  0.56071256  0.38255599  0.20395941  1
  Ni  Ni250  1  0.56073908  0.61744539  0.20398549  1
  Ni  Ni251  1  0.61718042  0.56079740  0.20387457  1
  Ni  Ni252  1  0.38259752  0.43919884  0.20402050  1
  Ni  Ni253  1  0.56147928  0.20264837  0.38449831  1
  Ni  Ni254  1  0.20263579  0.43849828  0.38455435  1
  Ni  Ni255  1  0.43853784  0.79730007  0.38454636  1
  Ni  Ni256  1  0.79711326  0.43834810  0.38440895  1
  Ni  Ni257  1  0.79724064  0.56128025  0.38379398  1
  Ni  Ni258  1  0.43849542  0.20269156  0.38453581  1
  Ni  Ni259  1  0.56165900  0.79725978  0.38445183  1
  Ni  Ni260  1  0.56148540  0.20265989  0.61550424  1
  Ni  Ni261  1  0.20264678  0.56153390  0.38453035  1
  Ni  Ni262  1  0.56167123  0.79727580  0.61554324  1
  Ni  Ni263  1  0.79726148  0.56128108  0.61617029  1
  Ni  Ni264  1  0.43854365  0.79730786  0.61545020  1
  Ni  Ni265  1  0.20263616  0.56153987  0.61548600  1
  Ni  Ni266  1  0.43850386  0.20269671  0.61548104  1
  Ni  Ni267  1  0.20261843  0.43849506  0.61545615  1
  Ni  Ni268  1  0.79712750  0.43836488  0.61554016  1
  Ni  Ni269  1  0.79539500  0.38022015  0.55894457  1
  Ni  Ni270  1  0.61963482  0.20446039  0.55887832  1
  Ni  Ni271  1  0.38036713  0.79553227  0.55885746  1
  Ni  Ni272  1  0.38035101  0.20446087  0.55885534  1
  Ni  Ni273  1  0.20444204  0.61971963  0.55888900  1
  Ni  Ni274  1  0.79549495  0.61919934  0.55904594  1
  Ni  Ni275  1  0.61981911  0.79545577  0.55898122  1
  Ni  Ni276  1  0.20443045  0.38027682  0.55886487  1
  Ni  Ni277  1  0.79539053  0.38022617  0.44103592  1
  Ni  Ni278  1  0.61961930  0.20445447  0.44113337  1
  Ni  Ni279  1  0.38036007  0.79552083  0.44113650  1
  Ni  Ni280  1  0.79549569  0.61920569  0.44093336  1
  Ni  Ni281  1  0.20445463  0.61971871  0.44112165  1
  Ni  Ni282  1  0.61981808  0.79545272  0.44100450  1
  Ni  Ni283  1  0.38034881  0.20447443  0.44116560  1
  Ni  Ni284  1  0.20444958  0.38028428  0.44113912  1
  H  H285  1  0.85587036  0.56895994  0.49938777  1
  Pt  Pt286  1  0.56057081  0.56056824  0.50000714  1
  Pt  Pt287  1  0.43942063  0.56059682  0.50000604  1
  Pt  Pt288  1  0.56054140  0.43950822  0.49999767  1
  Pt  Pt289  1  0.43939413  0.43950287  0.49999550  1
  Pt  Pt290  1  0.49997248  0.50001782  0.37881699  1
  Pt  Pt291  1  0.49997023  0.50002250  0.62118154  1
  Pt  Pt292  1  0.62128232  0.49999601  0.37911793  1
  Pt  Pt293  1  0.50000981  0.62127099  0.37911768  1
  Pt  Pt294  1  0.50001051  0.62127561  0.62088440  1
  Pt  Pt295  1  0.62128546  0.49999396  0.62087600  1
  Pt  Pt296  1  0.49999507  0.37875705  0.37912923  1
  Pt  Pt297  1  0.37870434  0.50001911  0.37909607  1
  Pt  Pt298  1  0.49999620  0.37876153  0.62086819  1
  Pt  Pt299  1  0.37870196  0.50002404  0.62091097  1
  Pt  Pt300  1  0.31961810  0.56063038  0.50000583  1
  Pt  Pt301  1  0.56059737  0.31967310  0.49999398  1
  Pt  Pt302  1  0.43941890  0.31971050  0.49999894  1
  Pt  Pt303  1  0.31962538  0.43943926  0.50000219  1
  Pt  Pt304  1  0.68074931  0.56054233  0.49999093  1
  Pt  Pt305  1  0.56072102  0.68031934  0.49999702  1
  Pt  Pt306  1  0.68019220  0.43943141  0.49999562  1
  Pt  Pt307  1  0.43941558  0.68037876  0.49999589  1
  Pt  Pt308  1  0.62165014  0.62151220  0.37895370  1
  Pt  Pt309  1  0.62165412  0.62151748  0.62104186  1
  Pt  Pt310  1  0.62163459  0.37838311  0.37896939  1
  Pt  Pt311  1  0.37836823  0.62164100  0.37897259  1
  Pt  Pt312  1  0.62163514  0.37838681  0.62102557  1
  Pt  Pt313  1  0.37836350  0.62165494  0.62103175  1
  Pt  Pt314  1  0.37834031  0.37838809  0.37897661  1
  Pt  Pt315  1  0.37835113  0.37840028  0.62102094  1
  Pt  Pt316  1  0.49996891  0.49998707  0.26131145  1
  Pt  Pt317  1  0.49995858  0.49999355  0.73868477  1
  Pt  Pt318  1  0.68497510  0.31497438  0.49999661  1
  Pt  Pt319  1  0.31501888  0.31503671  0.50000937  1
  Pt  Pt320  1  0.31500654  0.68498465  0.49999663  1
  Pt  Pt321  1  0.68497516  0.68490201  0.49999878  1
  Pt  Pt322  1  0.49998072  0.62487983  0.25779244  1
  Pt  Pt323  1  0.62473086  0.49992469  0.25763131  1
  Pt  Pt324  1  0.62472844  0.49991821  0.74236306  1
  Pt  Pt325  1  0.49997492  0.62488545  0.74220392  1
  Pt  Pt326  1  0.49996939  0.37511076  0.25779074  1
  Pt  Pt327  1  0.37509480  0.50001760  0.25779218  1
  Pt  Pt328  1  0.49996795  0.37512113  0.74221713  1
  Pt  Pt329  1  0.37509546  0.50001841  0.74221057  1
  Pt  Pt330  1  0.74396863  0.49992155  0.37548273  1
  Pt  Pt331  1  0.50007701  0.74413591  0.37546453  1
  Pt  Pt332  1  0.74397192  0.49993873  0.62449373  1
  Pt  Pt333  1  0.50008718  0.74414189  0.62452936  1
  Pt  Pt334  1  0.50000633  0.25584754  0.37545647  1
  Pt  Pt335  1  0.25582925  0.50001835  0.37546188  1
  Pt  Pt336  1  0.25581877  0.50002193  0.62453694  1
  Pt  Pt337  1  0.50001060  0.25585542  0.62454399  1
  Pt  Pt338  1  0.62257583  0.62259690  0.25963976  1
  Pt  Pt339  1  0.62258685  0.62259085  0.74035197  1
  Pt  Pt340  1  0.62255202  0.37737999  0.25969321  1
  Pt  Pt341  1  0.37735550  0.62263771  0.25971340  1
  Pt  Pt342  1  0.62254856  0.37738350  0.74030521  1
  Pt  Pt343  1  0.37734572  0.62266188  0.74028816  1
  Pt  Pt344  1  0.37731966  0.37733940  0.25973522  1
  Pt  Pt345  1  0.37732979  0.37734775  0.74027949  1
  Pt  Pt346  1  0.74119711  0.62238057  0.37805658  1
  Pt  Pt347  1  0.62285808  0.74113252  0.37811522  1
  Pt  Pt348  1  0.74120542  0.62236615  0.62192948  1
  Pt  Pt349  1  0.62285980  0.74113637  0.62187870  1
  Pt  Pt350  1  0.74115461  0.37716837  0.37807405  1
  Pt  Pt351  1  0.37725252  0.74127437  0.37815133  1
  Pt  Pt352  1  0.74116930  0.37718336  0.62190598  1
  Pt  Pt353  1  0.37725599  0.74128105  0.62184528  1
  Pt  Pt354  1  0.25870670  0.62277318  0.37813008  1
  Pt  Pt355  1  0.62273949  0.25864365  0.37809198  1
  Pt  Pt356  1  0.62274162  0.25865478  0.62190665  1
  Pt  Pt357  1  0.25870305  0.62278470  0.62187499  1
  Pt  Pt358  1  0.25869895  0.37725359  0.37814564  1
  Pt  Pt359  1  0.37723419  0.25873452  0.37818091  1
  Pt  Pt360  1  0.25869162  0.37725258  0.62186385  1
  Pt  Pt361  1  0.37723195  0.25873538  0.62183369  1
  Pt  Pt362  1  0.56072724  0.19962150  0.50001468  1
  Pt  Pt363  1  0.43930455  0.80034679  0.49999409  1
  Pt  Pt364  1  0.43928571  0.19964015  0.50000508  1
  Pt  Pt365  1  0.56102945  0.80025531  0.49998822  1
  Pt  Pt366  1  0.19960075  0.43921835  0.50000052  1
  Pt  Pt367  1  0.80037478  0.43897874  0.49999257  1
  Pt  Pt368  1  0.80399407  0.56045496  0.49998375  1
  Pt  Pt369  1  0.19959837  0.56082334  0.50000171  1
