data_image0
_chemical_formula_structural       Co256Pt5Co4Pt5Co3PtCo2PtCoPt13CoPt15CoPtCo2PtCoPt2Co2Pt52H
_chemical_formula_sum              "Co273 Pt96 H1"
_cell_length_a       30
_cell_length_b       30
_cell_length_c       30
_cell_angle_alpha    90
_cell_angle_beta     90
_cell_angle_gamma    90

_space_group_name_H-M_alt    "P 1"
_space_group_IT_number       1

loop_
  _space_group_symop_operation_xyz
  'x, y, z'

loop_
  _atom_site_type_symbol
  _atom_site_label
  _atom_site_symmetry_multiplicity
  _atom_site_fract_x
  _atom_site_fract_y
  _atom_site_fract_z
  _atom_site_occupancy
  Co  Co1       1.0  0.50000  0.50000  0.50000  1.0000
  Co  Co2       1.0  0.43997  0.50000  0.43997  1.0000
  Co  Co3       1.0  0.43997  0.56003  0.50000  1.0000
  Co  Co4       1.0  0.50000  0.56003  0.43997  1.0000
  Co  Co5       1.0  0.43997  0.43997  0.50000  1.0000
  Co  Co6       1.0  0.43997  0.50000  0.56003  1.0000
  Co  Co7       1.0  0.50000  0.43997  0.43997  1.0000
  Co  Co8       1.0  0.50000  0.43997  0.56003  1.0000
  Co  Co9       1.0  0.56003  0.50000  0.43997  1.0000
  Co  Co10      1.0  0.56003  0.56003  0.50000  1.0000
  Co  Co11      1.0  0.56003  0.43997  0.50000  1.0000
  Co  Co12      1.0  0.50000  0.56003  0.56003  1.0000
  Co  Co13      1.0  0.56003  0.50000  0.56003  1.0000
  Co  Co14      1.0  0.50000  0.62006  0.50000  1.0000
  Co  Co15      1.0  0.50000  0.50000  0.37994  1.0000
  Co  Co16      1.0  0.37994  0.50000  0.50000  1.0000
  Co  Co17      1.0  0.50000  0.37994  0.50000  1.0000
  Co  Co18      1.0  0.50000  0.50000  0.62006  1.0000
  Co  Co19      1.0  0.62006  0.50000  0.50000  1.0000
  Co  Co20      1.0  0.43997  0.62006  0.43997  1.0000
  Co  Co21      1.0  0.37994  0.56003  0.43997  1.0000
  Co  Co22      1.0  0.43997  0.56003  0.37994  1.0000
  Co  Co23      1.0  0.37994  0.56003  0.56003  1.0000
  Co  Co24      1.0  0.43997  0.43997  0.37994  1.0000
  Co  Co25      1.0  0.37994  0.43997  0.43997  1.0000
  Co  Co26      1.0  0.37994  0.43997  0.56003  1.0000
  Co  Co27      1.0  0.43997  0.37994  0.43997  1.0000
  Co  Co28      1.0  0.43997  0.43997  0.62006  1.0000
  Co  Co29      1.0  0.43997  0.62006  0.56003  1.0000
  Co  Co30      1.0  0.43997  0.37994  0.56003  1.0000
  Co  Co31      1.0  0.56003  0.62006  0.43997  1.0000
  Co  Co32      1.0  0.56003  0.56003  0.37994  1.0000
  Co  Co33      1.0  0.56003  0.43997  0.37994  1.0000
  Co  Co34      1.0  0.43997  0.56003  0.62006  1.0000
  Co  Co35      1.0  0.56003  0.37994  0.43997  1.0000
  Co  Co36      1.0  0.62006  0.43997  0.43997  1.0000
  Co  Co37      1.0  0.62006  0.56003  0.43997  1.0000
  Co  Co38      1.0  0.56003  0.62006  0.56003  1.0000
  Co  Co39      1.0  0.56003  0.37994  0.56003  1.0000
  Co  Co40      1.0  0.56003  0.43997  0.62006  1.0000
  Co  Co41      1.0  0.56003  0.56003  0.62006  1.0000
  Co  Co42      1.0  0.62006  0.43997  0.56003  1.0000
  Co  Co43      1.0  0.62006  0.56003  0.56003  1.0000
  Co  Co44      1.0  0.37994  0.62006  0.50000  1.0000
  Co  Co45      1.0  0.37994  0.50000  0.62006  1.0000
  Co  Co46      1.0  0.50000  0.62006  0.37994  1.0000
  Co  Co47      1.0  0.37994  0.50000  0.37994  1.0000
  Co  Co48      1.0  0.50000  0.37994  0.37994  1.0000
  Co  Co49      1.0  0.50000  0.37994  0.62006  1.0000
  Co  Co50      1.0  0.37994  0.37994  0.50000  1.0000
  Co  Co51      1.0  0.50000  0.62006  0.62006  1.0000
  Co  Co52      1.0  0.62006  0.50000  0.37994  1.0000
  Co  Co53      1.0  0.62006  0.62006  0.50000  1.0000
  Co  Co54      1.0  0.62006  0.37994  0.50000  1.0000
  Co  Co55      1.0  0.62006  0.50000  0.62006  1.0000
  Co  Co56      1.0  0.31991  0.56003  0.50000  1.0000
  Co  Co57      1.0  0.31991  0.50000  0.43997  1.0000
  Co  Co58      1.0  0.43997  0.50000  0.31991  1.0000
  Co  Co59      1.0  0.31991  0.50000  0.56003  1.0000
  Co  Co60      1.0  0.50000  0.56003  0.31991  1.0000
  Co  Co61      1.0  0.50000  0.43997  0.31991  1.0000
  Co  Co62      1.0  0.31991  0.43997  0.50000  1.0000
  Co  Co63      1.0  0.43997  0.68009  0.50000  1.0000
  Co  Co64      1.0  0.56003  0.31991  0.50000  1.0000
  Co  Co65      1.0  0.50000  0.31991  0.56003  1.0000
  Co  Co66      1.0  0.50000  0.31991  0.43997  1.0000
  Co  Co67      1.0  0.56003  0.50000  0.31991  1.0000
  Co  Co68      1.0  0.50000  0.68009  0.43997  1.0000
  Co  Co69      1.0  0.50000  0.43997  0.68009  1.0000
  Co  Co70      1.0  0.43997  0.31991  0.50000  1.0000
  Co  Co71      1.0  0.43997  0.50000  0.68009  1.0000
  Co  Co72      1.0  0.50000  0.68009  0.56003  1.0000
  Co  Co73      1.0  0.56003  0.68009  0.50000  1.0000
  Co  Co74      1.0  0.68009  0.43997  0.50000  1.0000
  Co  Co75      1.0  0.50000  0.56003  0.68009  1.0000
  Co  Co76      1.0  0.68009  0.50000  0.43997  1.0000
  Co  Co77      1.0  0.68009  0.56003  0.50000  1.0000
  Co  Co78      1.0  0.68009  0.50000  0.56003  1.0000
  Co  Co79      1.0  0.56003  0.50000  0.68009  1.0000
  Co  Co80      1.0  0.37994  0.62006  0.37994  1.0000
  Co  Co81      1.0  0.37994  0.62006  0.62006  1.0000
  Co  Co82      1.0  0.37994  0.37994  0.62006  1.0000
  Co  Co83      1.0  0.37994  0.37994  0.37994  1.0000
  Co  Co84      1.0  0.62006  0.62006  0.37994  1.0000
  Co  Co85      1.0  0.62006  0.37994  0.37994  1.0000
  Co  Co86      1.0  0.62006  0.62006  0.62006  1.0000
  Co  Co87      1.0  0.62006  0.37994  0.62006  1.0000
  Co  Co88      1.0  0.31991  0.62006  0.43997  1.0000
  Co  Co89      1.0  0.43997  0.62006  0.31991  1.0000
  Co  Co90      1.0  0.31991  0.56003  0.62006  1.0000
  Co  Co91      1.0  0.31991  0.62006  0.56003  1.0000
  Co  Co92      1.0  0.37994  0.56003  0.31991  1.0000
  Co  Co93      1.0  0.31991  0.56003  0.37994  1.0000
  Co  Co94      1.0  0.31991  0.43997  0.62006  1.0000
  Co  Co95      1.0  0.31991  0.43997  0.37994  1.0000
  Co  Co96      1.0  0.37994  0.43997  0.31991  1.0000
  Co  Co97      1.0  0.43997  0.37994  0.31991  1.0000
  Co  Co98      1.0  0.37994  0.68009  0.43997  1.0000
  Co  Co99      1.0  0.31991  0.37994  0.43997  1.0000
  Co  Co100     1.0  0.37994  0.56003  0.68009  1.0000
  Co  Co101     1.0  0.43997  0.68009  0.37994  1.0000
  Co  Co102     1.0  0.31991  0.37994  0.56003  1.0000
  Co  Co103     1.0  0.56003  0.37994  0.31991  1.0000
  Co  Co104     1.0  0.62006  0.31991  0.43997  1.0000
  Co  Co105     1.0  0.56003  0.62006  0.31991  1.0000
  Co  Co106     1.0  0.37994  0.43997  0.68009  1.0000
  Co  Co107     1.0  0.62006  0.56003  0.31991  1.0000
  Co  Co108     1.0  0.37994  0.68009  0.56003  1.0000
  Co  Co109     1.0  0.43997  0.31991  0.37994  1.0000
  Co  Co110     1.0  0.43997  0.31991  0.62006  1.0000
  Co  Co111     1.0  0.62006  0.31991  0.56003  1.0000
  Co  Co112     1.0  0.62006  0.43997  0.31991  1.0000
  Co  Co113     1.0  0.37994  0.31991  0.56003  1.0000
  Co  Co114     1.0  0.56003  0.31991  0.62006  1.0000
  Co  Co115     1.0  0.56003  0.31991  0.37994  1.0000
  Co  Co116     1.0  0.37994  0.31991  0.43997  1.0000
  Co  Co117     1.0  0.62006  0.68009  0.43997  1.0000
  Co  Co118     1.0  0.43997  0.37994  0.68009  1.0000
  Co  Co119     1.0  0.43997  0.68009  0.62006  1.0000
  Co  Co120     1.0  0.56003  0.68009  0.37994  1.0000
  Co  Co121     1.0  0.43997  0.62006  0.68009  1.0000
  Co  Co122     1.0  0.68009  0.62006  0.43997  1.0000
  Co  Co123     1.0  0.56003  0.37994  0.68009  1.0000
  Co  Co124     1.0  0.62006  0.68009  0.56003  1.0000
  Co  Co125     1.0  0.56003  0.68009  0.62006  1.0000
  Co  Co126     1.0  0.68009  0.56003  0.37994  1.0000
  Co  Co127     1.0  0.68009  0.43997  0.37994  1.0000
  Co  Co128     1.0  0.56003  0.62006  0.68009  1.0000
  Co  Co129     1.0  0.68009  0.62006  0.56003  1.0000
  Co  Co130     1.0  0.68009  0.37994  0.43997  1.0000
  Co  Co131     1.0  0.62006  0.56003  0.68009  1.0000
  Co  Co132     1.0  0.62006  0.43997  0.68009  1.0000
  Co  Co133     1.0  0.68009  0.43997  0.62006  1.0000
  Co  Co134     1.0  0.68009  0.37994  0.56003  1.0000
  Co  Co135     1.0  0.68009  0.56003  0.62006  1.0000
  Co  Co136     1.0  0.25988  0.50000  0.50000  1.0000
  Co  Co137     1.0  0.50000  0.74012  0.50000  1.0000
  Co  Co138     1.0  0.50000  0.50000  0.25988  1.0000
  Co  Co139     1.0  0.50000  0.25988  0.50000  1.0000
  Co  Co140     1.0  0.50000  0.50000  0.74012  1.0000
  Co  Co141     1.0  0.74012  0.50000  0.50000  1.0000
  Co  Co142     1.0  0.43997  0.56003  0.25988  1.0000
  Co  Co143     1.0  0.43997  0.74012  0.43997  1.0000
  Co  Co144     1.0  0.25988  0.56003  0.56003  1.0000
  Co  Co145     1.0  0.25988  0.56003  0.43997  1.0000
  Co  Co146     1.0  0.31991  0.50000  0.31991  1.0000
  Co  Co147     1.0  0.31991  0.68009  0.50000  1.0000
  Co  Co148     1.0  0.43997  0.43997  0.25988  1.0000
  Co  Co149     1.0  0.43997  0.43997  0.74012  1.0000
  Co  Co150     1.0  0.25988  0.43997  0.43997  1.0000
  Co  Co151     1.0  0.50000  0.68009  0.31991  1.0000
  Co  Co152     1.0  0.50000  0.31991  0.31991  1.0000
  Co  Co153     1.0  0.25988  0.43997  0.56003  1.0000
  Co  Co154     1.0  0.31991  0.50000  0.68009  1.0000
  Co  Co155     1.0  0.43997  0.74012  0.56003  1.0000
  Co  Co156     1.0  0.56003  0.74012  0.43997  1.0000
  Co  Co157     1.0  0.31991  0.31991  0.50000  1.0000
  Co  Co158     1.0  0.43997  0.25988  0.43997  1.0000
  Co  Co159     1.0  0.43997  0.25988  0.56003  1.0000
  Co  Co160     1.0  0.56003  0.25988  0.43997  1.0000
  Co  Co161     1.0  0.56003  0.56003  0.25988  1.0000
  Co  Co162     1.0  0.56003  0.43997  0.25988  1.0000
  Co  Co163     1.0  0.68009  0.31991  0.50000  1.0000
  Co  Co164     1.0  0.56003  0.25988  0.56003  1.0000
  Co  Co165     1.0  0.50000  0.31991  0.68009  1.0000
  Co  Co166     1.0  0.56003  0.74012  0.56003  1.0000
  Co  Co167     1.0  0.43997  0.56003  0.74012  1.0000
  Co  Co168     1.0  0.74012  0.43997  0.43997  1.0000
  Co  Co169     1.0  0.68009  0.50000  0.31991  1.0000
  Co  Co170     1.0  0.74012  0.56003  0.43997  1.0000
  Co  Co171     1.0  0.56003  0.56003  0.74012  1.0000
  Co  Co172     1.0  0.74012  0.43997  0.56003  1.0000
  Co  Co173     1.0  0.74012  0.56003  0.56003  1.0000
  Co  Co174     1.0  0.56003  0.43997  0.74012  1.0000
  Co  Co175     1.0  0.50000  0.68009  0.68009  1.0000
  Co  Co176     1.0  0.68009  0.68009  0.50000  1.0000
  Co  Co177     1.0  0.68009  0.50000  0.68009  1.0000
  Co  Co178     1.0  0.25988  0.50000  0.62006  1.0000
  Co  Co179     1.0  0.37994  0.74012  0.50000  1.0000
  Co  Co180     1.0  0.25988  0.50000  0.37994  1.0000
  Co  Co181     1.0  0.25988  0.62006  0.50000  1.0000
  Co  Co182     1.0  0.25988  0.37994  0.50000  1.0000
  Co  Co183     1.0  0.50000  0.37994  0.25988  1.0000
  Co  Co184     1.0  0.50000  0.74012  0.37994  1.0000
  Co  Co185     1.0  0.37994  0.50000  0.74012  1.0000
  Co  Co186     1.0  0.37994  0.50000  0.25988  1.0000
  Co  Co187     1.0  0.50000  0.37994  0.74012  1.0000
  Co  Co188     1.0  0.50000  0.62006  0.25988  1.0000
  Co  Co189     1.0  0.50000  0.25988  0.37994  1.0000
  Co  Co190     1.0  0.50000  0.62006  0.74012  1.0000
  Co  Co191     1.0  0.62006  0.74012  0.50000  1.0000
  Co  Co192     1.0  0.62006  0.25988  0.50000  1.0000
  Co  Co193     1.0  0.50000  0.25988  0.62006  1.0000
  Co  Co194     1.0  0.37994  0.25988  0.50000  1.0000
  Co  Co195     1.0  0.74012  0.62006  0.50000  1.0000
  Co  Co196     1.0  0.62006  0.50000  0.25988  1.0000
  Co  Co197     1.0  0.74012  0.50000  0.37994  1.0000
  Co  Co198     1.0  0.50000  0.74012  0.62006  1.0000
  Co  Co199     1.0  0.74012  0.37994  0.50000  1.0000
  Co  Co200     1.0  0.74012  0.50000  0.62006  1.0000
  Co  Co201     1.0  0.62006  0.50000  0.74012  1.0000
  Co  Co202     1.0  0.31991  0.62006  0.31991  1.0000
  Co  Co203     1.0  0.37994  0.68009  0.31991  1.0000
  Co  Co204     1.0  0.37994  0.31991  0.31991  1.0000
  Co  Co205     1.0  0.31991  0.37994  0.31991  1.0000
  Co  Co206     1.0  0.62006  0.31991  0.31991  1.0000
  Co  Co207     1.0  0.31991  0.68009  0.37994  1.0000
  Co  Co208     1.0  0.31991  0.31991  0.62006  1.0000
  Co  Co209     1.0  0.31991  0.62006  0.68009  1.0000
  Co  Co210     1.0  0.31991  0.31991  0.37994  1.0000
  Co  Co211     1.0  0.31991  0.37994  0.68009  1.0000
  Co  Co212     1.0  0.68009  0.31991  0.37994  1.0000
  Co  Co213     1.0  0.31991  0.68009  0.62006  1.0000
  Co  Co214     1.0  0.62006  0.31991  0.68009  1.0000
  Co  Co215     1.0  0.62006  0.68009  0.31991  1.0000
  Co  Co216     1.0  0.37994  0.31991  0.68009  1.0000
  Co  Co217     1.0  0.68009  0.31991  0.62006  1.0000
  Co  Co218     1.0  0.68009  0.37994  0.31991  1.0000
  Co  Co219     1.0  0.37994  0.68009  0.68009  1.0000
  Co  Co220     1.0  0.68009  0.62006  0.31991  1.0000
  Co  Co221     1.0  0.68009  0.68009  0.37994  1.0000
  Co  Co222     1.0  0.62006  0.68009  0.68009  1.0000
  Co  Co223     1.0  0.68009  0.37994  0.68009  1.0000
  Co  Co224     1.0  0.68009  0.62006  0.68009  1.0000
  Co  Co225     1.0  0.68009  0.68009  0.62006  1.0000
  Co  Co226     1.0  0.37994  0.74012  0.37994  1.0000
  Co  Co227     1.0  0.25988  0.62006  0.37994  1.0000
  Co  Co228     1.0  0.37994  0.62006  0.25988  1.0000
  Co  Co229     1.0  0.25988  0.62006  0.62006  1.0000
  Co  Co230     1.0  0.62006  0.74012  0.37994  1.0000
  Co  Co231     1.0  0.37994  0.74012  0.62006  1.0000
  Co  Co232     1.0  0.37994  0.37994  0.74012  1.0000
  Co  Co233     1.0  0.25988  0.37994  0.37994  1.0000
  Co  Co234     1.0  0.62006  0.25988  0.37994  1.0000
  Co  Co235     1.0  0.62006  0.25988  0.62006  1.0000
  Co  Co236     1.0  0.25988  0.37994  0.62006  1.0000
  Co  Co237     1.0  0.37994  0.37994  0.25988  1.0000
  Co  Co238     1.0  0.37994  0.25988  0.37994  1.0000
  Co  Co239     1.0  0.37994  0.25988  0.62006  1.0000
  Co  Co240     1.0  0.62006  0.62006  0.25988  1.0000
  Co  Co241     1.0  0.62006  0.74012  0.62006  1.0000
  Co  Co242     1.0  0.37994  0.62006  0.74012  1.0000
  Co  Co243     1.0  0.62006  0.37994  0.25988  1.0000
  Co  Co244     1.0  0.74012  0.62006  0.37994  1.0000
  Co  Co245     1.0  0.74012  0.37994  0.37994  1.0000
  Co  Co246     1.0  0.74012  0.37994  0.62006  1.0000
  Co  Co247     1.0  0.62006  0.37994  0.74012  1.0000
  Co  Co248     1.0  0.74012  0.62006  0.62006  1.0000
  Co  Co249     1.0  0.62006  0.62006  0.74012  1.0000
  Co  Co250     1.0  0.50000  0.43997  0.80015  1.0000
  Co  Co251     1.0  0.50000  0.56003  0.19985  1.0000
  Co  Co252     1.0  0.19985  0.50000  0.43997  1.0000
  Co  Co253     1.0  0.19985  0.50000  0.56003  1.0000
  Co  Co254     1.0  0.50000  0.43997  0.19985  1.0000
  Co  Co255     1.0  0.50000  0.80015  0.43997  1.0000
  Co  Co256     1.0  0.43997  0.50000  0.19985  1.0000
  Pt  Pt1       1.0  0.25988  0.56003  0.31991  1.0000
  Pt  Pt2       1.0  0.43997  0.74012  0.31991  1.0000
  Pt  Pt3       1.0  0.25988  0.68009  0.56003  1.0000
  Pt  Pt4       1.0  0.31991  0.74012  0.56003  1.0000
  Pt  Pt5       1.0  0.31991  0.74012  0.43997  1.0000
  Co  Co257     1.0  0.43997  0.50000  0.80015  1.0000
  Co  Co258     1.0  0.19985  0.56003  0.50000  1.0000
  Co  Co259     1.0  0.19985  0.43997  0.50000  1.0000
  Co  Co260     1.0  0.43997  0.80015  0.50000  1.0000
  Pt  Pt6       1.0  0.31991  0.56003  0.25988  1.0000
  Pt  Pt7       1.0  0.31991  0.56003  0.74012  1.0000
  Pt  Pt8       1.0  0.25988  0.68009  0.43997  1.0000
  Pt  Pt9       1.0  0.43997  0.68009  0.25988  1.0000
  Pt  Pt10      1.0  0.56003  0.68009  0.25988  1.0000
  Co  Co261     1.0  0.50000  0.19985  0.56003  1.0000
  Co  Co262     1.0  0.56003  0.80015  0.50000  1.0000
  Co  Co263     1.0  0.50000  0.19985  0.43997  1.0000
  Pt  Pt11      1.0  0.31991  0.43997  0.74012  1.0000
  Co  Co264     1.0  0.56003  0.19985  0.50000  1.0000
  Co  Co265     1.0  0.56003  0.50000  0.19985  1.0000
  Pt  Pt12      1.0  0.56003  0.31991  0.74012  1.0000
  Co  Co266     1.0  0.43997  0.19985  0.50000  1.0000
  Pt  Pt13      1.0  0.56003  0.31991  0.25988  1.0000
  Pt  Pt14      1.0  0.43997  0.25988  0.31991  1.0000
  Pt  Pt15      1.0  0.25988  0.31991  0.43997  1.0000
  Pt  Pt16      1.0  0.25988  0.31991  0.56003  1.0000
  Pt  Pt17      1.0  0.31991  0.25988  0.56003  1.0000
  Pt  Pt18      1.0  0.31991  0.25988  0.43997  1.0000
  Pt  Pt19      1.0  0.43997  0.31991  0.25988  1.0000
  Pt  Pt20      1.0  0.31991  0.43997  0.25988  1.0000
  Pt  Pt21      1.0  0.43997  0.31991  0.74012  1.0000
  Pt  Pt22      1.0  0.25988  0.43997  0.31991  1.0000
  Pt  Pt23      1.0  0.74012  0.31991  0.43997  1.0000
  Pt  Pt24      1.0  0.56003  0.74012  0.31991  1.0000
  Pt  Pt25      1.0  0.25988  0.56003  0.68009  1.0000
  Co  Co267     1.0  0.50000  0.80015  0.56003  1.0000
  Pt  Pt26      1.0  0.25988  0.43997  0.68009  1.0000
  Pt  Pt27      1.0  0.43997  0.25988  0.68009  1.0000
  Pt  Pt28      1.0  0.43997  0.74012  0.68009  1.0000
  Pt  Pt29      1.0  0.74012  0.31991  0.56003  1.0000
  Pt  Pt30      1.0  0.68009  0.25988  0.43997  1.0000
  Pt  Pt31      1.0  0.74012  0.43997  0.31991  1.0000
  Pt  Pt32      1.0  0.68009  0.25988  0.56003  1.0000
  Pt  Pt33      1.0  0.74012  0.56003  0.31991  1.0000
  Pt  Pt34      1.0  0.56003  0.25988  0.68009  1.0000
  Pt  Pt35      1.0  0.56003  0.25988  0.31991  1.0000
  Pt  Pt36      1.0  0.68009  0.56003  0.25988  1.0000
  Pt  Pt37      1.0  0.43997  0.68009  0.74012  1.0000
  Pt  Pt38      1.0  0.74012  0.68009  0.56003  1.0000
  Pt  Pt39      1.0  0.68009  0.74012  0.56003  1.0000
  Pt  Pt40      1.0  0.56003  0.74012  0.68009  1.0000
  Co  Co268     1.0  0.80015  0.50000  0.56003  1.0000
  Pt  Pt41      1.0  0.68009  0.74012  0.43997  1.0000
  Co  Co269     1.0  0.80015  0.50000  0.43997  1.0000
  Co  Co270     1.0  0.80015  0.43997  0.50000  1.0000
  Pt  Pt42      1.0  0.74012  0.68009  0.43997  1.0000
  Co  Co271     1.0  0.80015  0.56003  0.50000  1.0000
  Pt  Pt43      1.0  0.68009  0.43997  0.25988  1.0000
  Pt  Pt44      1.0  0.56003  0.68009  0.74012  1.0000
  Co  Co272     1.0  0.56003  0.50000  0.80015  1.0000
  Co  Co273     1.0  0.50000  0.56003  0.80015  1.0000
  Pt  Pt45      1.0  0.74012  0.56003  0.68009  1.0000
  Pt  Pt46      1.0  0.74012  0.43997  0.68009  1.0000
  Pt  Pt47      1.0  0.68009  0.56003  0.74012  1.0000
  Pt  Pt48      1.0  0.68009  0.43997  0.74012  1.0000
  Pt  Pt49      1.0  0.37994  0.43997  0.19985  1.0000
  Pt  Pt50      1.0  0.37994  0.43997  0.80015  1.0000
  Pt  Pt51      1.0  0.19985  0.56003  0.37994  1.0000
  Pt  Pt52      1.0  0.19985  0.43997  0.37994  1.0000
  Pt  Pt53      1.0  0.19985  0.62006  0.43997  1.0000
  Pt  Pt54      1.0  0.43997  0.80015  0.37994  1.0000
  Pt  Pt55      1.0  0.37994  0.56003  0.80015  1.0000
  Pt  Pt56      1.0  0.37994  0.56003  0.19985  1.0000
  Pt  Pt57      1.0  0.37994  0.80015  0.56003  1.0000
  Pt  Pt58      1.0  0.37994  0.80015  0.43997  1.0000
  Pt  Pt59      1.0  0.19985  0.62006  0.56003  1.0000
  Pt  Pt60      1.0  0.43997  0.62006  0.19985  1.0000
  Pt  Pt61      1.0  0.19985  0.43997  0.62006  1.0000
  Pt  Pt62      1.0  0.19985  0.56003  0.62006  1.0000
  Pt  Pt63      1.0  0.19985  0.37994  0.43997  1.0000
  Pt  Pt64      1.0  0.37994  0.19985  0.43997  1.0000
  Pt  Pt65      1.0  0.56003  0.80015  0.62006  1.0000
  Pt  Pt66      1.0  0.56003  0.80015  0.37994  1.0000
  Pt  Pt67      1.0  0.43997  0.80015  0.62006  1.0000
  Pt  Pt68      1.0  0.62006  0.80015  0.56003  1.0000
  Pt  Pt69      1.0  0.62006  0.80015  0.43997  1.0000
  Pt  Pt70      1.0  0.43997  0.19985  0.62006  1.0000
  Pt  Pt71      1.0  0.56003  0.62006  0.19985  1.0000
  Pt  Pt72      1.0  0.62006  0.19985  0.56003  1.0000
  Pt  Pt73      1.0  0.37994  0.19985  0.56003  1.0000
  Pt  Pt74      1.0  0.62006  0.19985  0.43997  1.0000
  Pt  Pt75      1.0  0.43997  0.19985  0.37994  1.0000
  Pt  Pt76      1.0  0.62006  0.43997  0.19985  1.0000
  Pt  Pt77      1.0  0.43997  0.37994  0.80015  1.0000
  Pt  Pt78      1.0  0.56003  0.19985  0.62006  1.0000
  Pt  Pt79      1.0  0.43997  0.37994  0.19985  1.0000
  Pt  Pt80      1.0  0.19985  0.37994  0.56003  1.0000
  Pt  Pt81      1.0  0.56003  0.37994  0.80015  1.0000
  Pt  Pt82      1.0  0.62006  0.56003  0.19985  1.0000
  Pt  Pt83      1.0  0.56003  0.37994  0.19985  1.0000
  Pt  Pt84      1.0  0.56003  0.19985  0.37994  1.0000
  Pt  Pt85      1.0  0.80015  0.56003  0.37994  1.0000
  Pt  Pt86      1.0  0.80015  0.43997  0.37994  1.0000
  Pt  Pt87      1.0  0.43997  0.62006  0.80015  1.0000
  Pt  Pt88      1.0  0.80015  0.62006  0.43997  1.0000
  Pt  Pt89      1.0  0.80015  0.56003  0.62006  1.0000
  Pt  Pt90      1.0  0.80015  0.37994  0.43997  1.0000
  Pt  Pt91      1.0  0.80015  0.62006  0.56003  1.0000
  Pt  Pt92      1.0  0.80015  0.37994  0.56003  1.0000
  Pt  Pt93      1.0  0.56003  0.62006  0.80015  1.0000
  Pt  Pt94      1.0  0.80015  0.43997  0.62006  1.0000
  Pt  Pt95      1.0  0.62006  0.56003  0.80015  1.0000
  Pt  Pt96      1.0  0.62006  0.43997  0.80015  1.0000
  H   H1        1.0  0.40953  0.77076  0.71023  1.0000
