data_con0.2_10nm_Co_core_Pt_shell
_audit_creation_date              2024-08-19
_audit_creation_method            'Materials Studio'
_symmetry_space_group_name_H-M    'P1'
_symmetry_Int_Tables_number       1
_symmetry_cell_setting            triclinic
loop_
_symmetry_equiv_pos_as_xyz
  x,y,z
_cell_length_a                    30.0000
_cell_length_b                    30.0000
_cell_length_c                    30.0000
_cell_angle_alpha                 90.0000
_cell_angle_beta                  90.0000
_cell_angle_gamma                 90.0000
loop_
_atom_site_label
_atom_site_type_symbol
_atom_site_fract_x
_atom_site_fract_y
_atom_site_fract_z
_atom_site_U_iso_or_equiv
_atom_site_adp_type
_atom_site_occupancy
Co0    Co    0.50000   0.50000   0.50000   0.00000  Uiso   1.00
Co1    Co    0.43997   0.50000   0.43997   0.00000  Uiso   1.00
Co2    Co    0.43997   0.56003   0.50000   0.00000  Uiso   1.00
Co3    Co    0.50000   0.56003   0.43997   0.00000  Uiso   1.00
Co4    Co    0.43997   0.43997   0.50000   0.00000  Uiso   1.00
Co5    Co    0.43997   0.50000   0.56003   0.00000  Uiso   1.00
Co6    Co    0.50000   0.43997   0.43997   0.00000  Uiso   1.00
Co7    Co    0.50000   0.43997   0.56003   0.00000  Uiso   1.00
Co8    Co    0.56003   0.50000   0.43997   0.00000  Uiso   1.00
Co9    Co    0.56003   0.56003   0.50000   0.00000  Uiso   1.00
Co10   Co    0.56003   0.43997   0.50000   0.00000  Uiso   1.00
Co11   Co    0.50000   0.56003   0.56003   0.00000  Uiso   1.00
Co12   Co    0.56003   0.50000   0.56003   0.00000  Uiso   1.00
Co13   Co    0.50000   0.62006   0.50000   0.00000  Uiso   1.00
Co14   Co    0.50000   0.50000   0.37994   0.00000  Uiso   1.00
Co15   Co    0.37994   0.50000   0.50000   0.00000  Uiso   1.00
Co16   Co    0.50000   0.37994   0.50000   0.00000  Uiso   1.00
Co17   Co    0.50000   0.50000   0.62006   0.00000  Uiso   1.00
Co18   Co    0.62006   0.50000   0.50000   0.00000  Uiso   1.00
Co19   Co    0.43997   0.62006   0.43997   0.00000  Uiso   1.00
Co20   Co    0.37994   0.56003   0.43997   0.00000  Uiso   1.00
Co21   Co    0.43997   0.56003   0.37994   0.00000  Uiso   1.00
Co22   Co    0.37994   0.56003   0.56003   0.00000  Uiso   1.00
Co23   Co    0.43997   0.43997   0.37994   0.00000  Uiso   1.00
Co24   Co    0.37994   0.43997   0.43997   0.00000  Uiso   1.00
Co25   Co    0.37994   0.43997   0.56003   0.00000  Uiso   1.00
Co26   Co    0.43997   0.37994   0.43997   0.00000  Uiso   1.00
Co27   Co    0.43997   0.43997   0.62006   0.00000  Uiso   1.00
Co28   Co    0.43997   0.62006   0.56003   0.00000  Uiso   1.00
Co29   Co    0.43997   0.37994   0.56003   0.00000  Uiso   1.00
Co30   Co    0.56003   0.62006   0.43997   0.00000  Uiso   1.00
Co31   Co    0.56003   0.56003   0.37994   0.00000  Uiso   1.00
Co32   Co    0.56003   0.43997   0.37994   0.00000  Uiso   1.00
Co33   Co    0.43997   0.56003   0.62006   0.00000  Uiso   1.00
Co34   Co    0.56003   0.37994   0.43997   0.00000  Uiso   1.00
Co35   Co    0.62006   0.43997   0.43997   0.00000  Uiso   1.00
Co36   Co    0.62006   0.56003   0.43997   0.00000  Uiso   1.00
Co37   Co    0.56003   0.62006   0.56003   0.00000  Uiso   1.00
Co38   Co    0.56003   0.37994   0.56003   0.00000  Uiso   1.00
Co39   Co    0.56003   0.43997   0.62006   0.00000  Uiso   1.00
Co40   Co    0.56003   0.56003   0.62006   0.00000  Uiso   1.00
Co41   Co    0.62006   0.43997   0.56003   0.00000  Uiso   1.00
Co42   Co    0.62006   0.56003   0.56003   0.00000  Uiso   1.00
Co43   Co    0.37994   0.62006   0.50000   0.00000  Uiso   1.00
Co44   Co    0.37994   0.50000   0.62006   0.00000  Uiso   1.00
Co45   Co    0.50000   0.62006   0.37994   0.00000  Uiso   1.00
Co46   Co    0.37994   0.50000   0.37994   0.00000  Uiso   1.00
Co47   Co    0.50000   0.37994   0.37994   0.00000  Uiso   1.00
Co48   Co    0.50000   0.37994   0.62006   0.00000  Uiso   1.00
Co49   Co    0.37994   0.37994   0.50000   0.00000  Uiso   1.00
Co50   Co    0.50000   0.62006   0.62006   0.00000  Uiso   1.00
Co51   Co    0.62006   0.50000   0.37994   0.00000  Uiso   1.00
Co52   Co    0.62006   0.62006   0.50000   0.00000  Uiso   1.00
Co53   Co    0.62006   0.37994   0.50000   0.00000  Uiso   1.00
Co54   Co    0.62006   0.50000   0.62006   0.00000  Uiso   1.00
Co55   Co    0.31991   0.56003   0.50000   0.00000  Uiso   1.00
Co56   Co    0.31991   0.50000   0.43997   0.00000  Uiso   1.00
Co57   Co    0.43997   0.50000   0.31991   0.00000  Uiso   1.00
Co58   Co    0.31991   0.50000   0.56003   0.00000  Uiso   1.00
Co59   Co    0.50000   0.56003   0.31991   0.00000  Uiso   1.00
Co60   Co    0.50000   0.43997   0.31991   0.00000  Uiso   1.00
Co61   Co    0.31991   0.43997   0.50000   0.00000  Uiso   1.00
Co62   Co    0.43997   0.68009   0.50000   0.00000  Uiso   1.00
Co63   Co    0.56003   0.31991   0.50000   0.00000  Uiso   1.00
Co64   Co    0.50000   0.31991   0.56003   0.00000  Uiso   1.00
Co65   Co    0.50000   0.31991   0.43997   0.00000  Uiso   1.00
Co66   Co    0.56003   0.50000   0.31991   0.00000  Uiso   1.00
Co67   Co    0.50000   0.68009   0.43997   0.00000  Uiso   1.00
Co68   Co    0.50000   0.43997   0.68009   0.00000  Uiso   1.00
Co69   Co    0.43997   0.31991   0.50000   0.00000  Uiso   1.00
Co70   Co    0.43997   0.50000   0.68009   0.00000  Uiso   1.00
Co71   Co    0.50000   0.68009   0.56003   0.00000  Uiso   1.00
Co72   Co    0.56003   0.68009   0.50000   0.00000  Uiso   1.00
Co73   Co    0.68009   0.43997   0.50000   0.00000  Uiso   1.00
Co74   Co    0.50000   0.56003   0.68009   0.00000  Uiso   1.00
Co75   Co    0.68009   0.50000   0.43997   0.00000  Uiso   1.00
Co76   Co    0.68009   0.56003   0.50000   0.00000  Uiso   1.00
Co77   Co    0.68009   0.50000   0.56003   0.00000  Uiso   1.00
Co78   Co    0.56003   0.50000   0.68009   0.00000  Uiso   1.00
Co79   Co    0.37994   0.62006   0.37994   0.00000  Uiso   1.00
Co80   Co    0.37994   0.62006   0.62006   0.00000  Uiso   1.00
Co81   Co    0.37994   0.37994   0.62006   0.00000  Uiso   1.00
Co82   Co    0.37994   0.37994   0.37994   0.00000  Uiso   1.00
Co83   Co    0.62006   0.62006   0.37994   0.00000  Uiso   1.00
Co84   Co    0.62006   0.37994   0.37994   0.00000  Uiso   1.00
Co85   Co    0.62006   0.62006   0.62006   0.00000  Uiso   1.00
Co86   Co    0.62006   0.37994   0.62006   0.00000  Uiso   1.00
Co87   Co    0.31991   0.62006   0.43997   0.00000  Uiso   1.00
Co88   Co    0.43997   0.62006   0.31991   0.00000  Uiso   1.00
Co89   Co    0.31991   0.56003   0.62006   0.00000  Uiso   1.00
Co90   Co    0.31991   0.62006   0.56003   0.00000  Uiso   1.00
Co91   Co    0.37994   0.56003   0.31991   0.00000  Uiso   1.00
Co92   Co    0.31991   0.56003   0.37994   0.00000  Uiso   1.00
Co93   Co    0.31991   0.43997   0.62006   0.00000  Uiso   1.00
Co94   Co    0.31991   0.43997   0.37994   0.00000  Uiso   1.00
Co95   Co    0.37994   0.43997   0.31991   0.00000  Uiso   1.00
Co96   Co    0.43997   0.37994   0.31991   0.00000  Uiso   1.00
Co97   Co    0.37994   0.68009   0.43997   0.00000  Uiso   1.00
Co98   Co    0.31991   0.37994   0.43997   0.00000  Uiso   1.00
Co99   Co    0.37994   0.56003   0.68009   0.00000  Uiso   1.00
Co100  Co    0.43997   0.68009   0.37994   0.00000  Uiso   1.00
Co101  Co    0.31991   0.37994   0.56003   0.00000  Uiso   1.00
Co102  Co    0.56003   0.37994   0.31991   0.00000  Uiso   1.00
Co103  Co    0.62006   0.31991   0.43997   0.00000  Uiso   1.00
Co104  Co    0.56003   0.62006   0.31991   0.00000  Uiso   1.00
Co105  Co    0.37994   0.43997   0.68009   0.00000  Uiso   1.00
Co106  Co    0.62006   0.56003   0.31991   0.00000  Uiso   1.00
Co107  Co    0.37994   0.68009   0.56003   0.00000  Uiso   1.00
Co108  Co    0.43997   0.31991   0.37994   0.00000  Uiso   1.00
Co109  Co    0.43997   0.31991   0.62006   0.00000  Uiso   1.00
Co110  Co    0.62006   0.31991   0.56003   0.00000  Uiso   1.00
Co111  Co    0.62006   0.43997   0.31991   0.00000  Uiso   1.00
Co112  Co    0.37994   0.31991   0.56003   0.00000  Uiso   1.00
Co113  Co    0.56003   0.31991   0.62006   0.00000  Uiso   1.00
Co114  Co    0.56003   0.31991   0.37994   0.00000  Uiso   1.00
Co115  Co    0.37994   0.31991   0.43997   0.00000  Uiso   1.00
Co116  Co    0.62006   0.68009   0.43997   0.00000  Uiso   1.00
Co117  Co    0.43997   0.37994   0.68009   0.00000  Uiso   1.00
Co118  Co    0.43997   0.68009   0.62006   0.00000  Uiso   1.00
Co119  Co    0.56003   0.68009   0.37994   0.00000  Uiso   1.00
Co120  Co    0.43997   0.62006   0.68009   0.00000  Uiso   1.00
Co121  Co    0.68009   0.62006   0.43997   0.00000  Uiso   1.00
Co122  Co    0.56003   0.37994   0.68009   0.00000  Uiso   1.00
Co123  Co    0.62006   0.68009   0.56003   0.00000  Uiso   1.00
Co124  Co    0.56003   0.68009   0.62006   0.00000  Uiso   1.00
Co125  Co    0.68009   0.56003   0.37994   0.00000  Uiso   1.00
Co126  Co    0.68009   0.43997   0.37994   0.00000  Uiso   1.00
Co127  Co    0.56003   0.62006   0.68009   0.00000  Uiso   1.00
Co128  Co    0.68009   0.62006   0.56003   0.00000  Uiso   1.00
Co129  Co    0.68009   0.37994   0.43997   0.00000  Uiso   1.00
Co130  Co    0.62006   0.56003   0.68009   0.00000  Uiso   1.00
Co131  Co    0.62006   0.43997   0.68009   0.00000  Uiso   1.00
Co132  Co    0.68009   0.43997   0.62006   0.00000  Uiso   1.00
Co133  Co    0.68009   0.37994   0.56003   0.00000  Uiso   1.00
Co134  Co    0.68009   0.56003   0.62006   0.00000  Uiso   1.00
Co135  Co    0.25988   0.50000   0.50000   0.00000  Uiso   1.00
Co136  Co    0.50000   0.74012   0.50000   0.00000  Uiso   1.00
Co137  Co    0.50000   0.50000   0.25988   0.00000  Uiso   1.00
Co138  Co    0.50000   0.25988   0.50000   0.00000  Uiso   1.00
Co139  Co    0.50000   0.50000   0.74012   0.00000  Uiso   1.00
Co140  Co    0.74012   0.50000   0.50000   0.00000  Uiso   1.00
Co141  Co    0.43997   0.56003   0.25988   0.00000  Uiso   1.00
Co142  Co    0.43997   0.74012   0.43997   0.00000  Uiso   1.00
Co143  Co    0.25988   0.56003   0.56003   0.00000  Uiso   1.00
Co144  Co    0.25988   0.56003   0.43997   0.00000  Uiso   1.00
Co145  Co    0.31991   0.50000   0.31991   0.00000  Uiso   1.00
Co146  Co    0.31991   0.68009   0.50000   0.00000  Uiso   1.00
Co147  Co    0.43997   0.43997   0.25988   0.00000  Uiso   1.00
Co148  Co    0.43997   0.43997   0.74012   0.00000  Uiso   1.00
Co149  Co    0.25988   0.43997   0.43997   0.00000  Uiso   1.00
Co150  Co    0.50000   0.68009   0.31991   0.00000  Uiso   1.00
Co151  Co    0.50000   0.31991   0.31991   0.00000  Uiso   1.00
Co152  Co    0.25988   0.43997   0.56003   0.00000  Uiso   1.00
Co153  Co    0.31991   0.50000   0.68009   0.00000  Uiso   1.00
Co154  Co    0.43997   0.74012   0.56003   0.00000  Uiso   1.00
Co155  Co    0.56003   0.74012   0.43997   0.00000  Uiso   1.00
Co156  Co    0.31991   0.31991   0.50000   0.00000  Uiso   1.00
Co157  Co    0.43997   0.25988   0.43997   0.00000  Uiso   1.00
Co158  Co    0.43997   0.25988   0.56003   0.00000  Uiso   1.00
Co159  Co    0.56003   0.25988   0.43997   0.00000  Uiso   1.00
Co160  Co    0.56003   0.56003   0.25988   0.00000  Uiso   1.00
Co161  Co    0.56003   0.43997   0.25988   0.00000  Uiso   1.00
Co162  Co    0.68009   0.31991   0.50000   0.00000  Uiso   1.00
Co163  Co    0.56003   0.25988   0.56003   0.00000  Uiso   1.00
Co164  Co    0.50000   0.31991   0.68009   0.00000  Uiso   1.00
Co165  Co    0.56003   0.74012   0.56003   0.00000  Uiso   1.00
Co166  Co    0.43997   0.56003   0.74012   0.00000  Uiso   1.00
Co167  Co    0.74012   0.43997   0.43997   0.00000  Uiso   1.00
Co168  Co    0.68009   0.50000   0.31991   0.00000  Uiso   1.00
Co169  Co    0.74012   0.56003   0.43997   0.00000  Uiso   1.00
Co170  Co    0.56003   0.56003   0.74012   0.00000  Uiso   1.00
Co171  Co    0.74012   0.43997   0.56003   0.00000  Uiso   1.00
Co172  Co    0.74012   0.56003   0.56003   0.00000  Uiso   1.00
Co173  Co    0.56003   0.43997   0.74012   0.00000  Uiso   1.00
Co174  Co    0.50000   0.68009   0.68009   0.00000  Uiso   1.00
Co175  Co    0.68009   0.68009   0.50000   0.00000  Uiso   1.00
Co176  Co    0.68009   0.50000   0.68009   0.00000  Uiso   1.00
Co177  Co    0.25988   0.50000   0.62006   0.00000  Uiso   1.00
Co178  Co    0.37994   0.74012   0.50000   0.00000  Uiso   1.00
Co179  Co    0.25988   0.50000   0.37994   0.00000  Uiso   1.00
Co180  Co    0.25988   0.62006   0.50000   0.00000  Uiso   1.00
Co181  Co    0.25988   0.37994   0.50000   0.00000  Uiso   1.00
Co182  Co    0.50000   0.37994   0.25988   0.00000  Uiso   1.00
Co183  Co    0.50000   0.74012   0.37994   0.00000  Uiso   1.00
Co184  Co    0.37994   0.50000   0.74012   0.00000  Uiso   1.00
Co185  Co    0.37994   0.50000   0.25988   0.00000  Uiso   1.00
Co186  Co    0.50000   0.37994   0.74012   0.00000  Uiso   1.00
Co187  Co    0.50000   0.62006   0.25988   0.00000  Uiso   1.00
Co188  Co    0.50000   0.25988   0.37994   0.00000  Uiso   1.00
Co189  Co    0.50000   0.62006   0.74012   0.00000  Uiso   1.00
Co190  Co    0.62006   0.74012   0.50000   0.00000  Uiso   1.00
Co191  Co    0.62006   0.25988   0.50000   0.00000  Uiso   1.00
Co192  Co    0.50000   0.25988   0.62006   0.00000  Uiso   1.00
Co193  Co    0.37994   0.25988   0.50000   0.00000  Uiso   1.00
Co194  Co    0.74012   0.62006   0.50000   0.00000  Uiso   1.00
Co195  Co    0.62006   0.50000   0.25988   0.00000  Uiso   1.00
Co196  Co    0.74012   0.50000   0.37994   0.00000  Uiso   1.00
Co197  Co    0.50000   0.74012   0.62006   0.00000  Uiso   1.00
Co198  Co    0.74012   0.37994   0.50000   0.00000  Uiso   1.00
Co199  Co    0.74012   0.50000   0.62006   0.00000  Uiso   1.00
Co200  Co    0.62006   0.50000   0.74012   0.00000  Uiso   1.00
Co201  Co    0.31991   0.62006   0.31991   0.00000  Uiso   1.00
Co202  Co    0.37994   0.68009   0.31991   0.00000  Uiso   1.00
Co203  Co    0.37994   0.31991   0.31991   0.00000  Uiso   1.00
Co204  Co    0.31991   0.37994   0.31991   0.00000  Uiso   1.00
Co205  Co    0.62006   0.31991   0.31991   0.00000  Uiso   1.00
Co206  Co    0.31991   0.68009   0.37994   0.00000  Uiso   1.00
Co207  Co    0.31991   0.31991   0.62006   0.00000  Uiso   1.00
Co208  Co    0.31991   0.62006   0.68009   0.00000  Uiso   1.00
Co209  Co    0.31991   0.31991   0.37994   0.00000  Uiso   1.00
Co210  Co    0.31991   0.37994   0.68009   0.00000  Uiso   1.00
Co211  Co    0.68009   0.31991   0.37994   0.00000  Uiso   1.00
Co212  Co    0.31991   0.68009   0.62006   0.00000  Uiso   1.00
Co213  Co    0.62006   0.31991   0.68009   0.00000  Uiso   1.00
Co214  Co    0.62006   0.68009   0.31991   0.00000  Uiso   1.00
Co215  Co    0.37994   0.31991   0.68009   0.00000  Uiso   1.00
Co216  Co    0.68009   0.31991   0.62006   0.00000  Uiso   1.00
Co217  Co    0.68009   0.37994   0.31991   0.00000  Uiso   1.00
Co218  Co    0.37994   0.68009   0.68009   0.00000  Uiso   1.00
Co219  Co    0.68009   0.62006   0.31991   0.00000  Uiso   1.00
Co220  Co    0.68009   0.68009   0.37994   0.00000  Uiso   1.00
Co221  Co    0.62006   0.68009   0.68009   0.00000  Uiso   1.00
Co222  Co    0.68009   0.37994   0.68009   0.00000  Uiso   1.00
Co223  Co    0.68009   0.62006   0.68009   0.00000  Uiso   1.00
Co224  Co    0.68009   0.68009   0.62006   0.00000  Uiso   1.00
Co225  Co    0.37994   0.74012   0.37994   0.00000  Uiso   1.00
Co226  Co    0.25988   0.62006   0.37994   0.00000  Uiso   1.00
Co227  Co    0.37994   0.62006   0.25988   0.00000  Uiso   1.00
Co228  Co    0.25988   0.62006   0.62006   0.00000  Uiso   1.00
Co229  Co    0.62006   0.74012   0.37994   0.00000  Uiso   1.00
Co230  Co    0.37994   0.74012   0.62006   0.00000  Uiso   1.00
Co231  Co    0.37994   0.37994   0.74012   0.00000  Uiso   1.00
Co232  Co    0.25988   0.37994   0.37994   0.00000  Uiso   1.00
Co233  Co    0.62006   0.25988   0.37994   0.00000  Uiso   1.00
Co234  Co    0.62006   0.25988   0.62006   0.00000  Uiso   1.00
Co235  Co    0.25988   0.37994   0.62006   0.00000  Uiso   1.00
Co236  Co    0.37994   0.37994   0.25988   0.00000  Uiso   1.00
Co237  Co    0.37994   0.25988   0.37994   0.00000  Uiso   1.00
Co238  Co    0.37994   0.25988   0.62006   0.00000  Uiso   1.00
Co239  Co    0.62006   0.62006   0.25988   0.00000  Uiso   1.00
Co240  Co    0.62006   0.74012   0.62006   0.00000  Uiso   1.00
Co241  Co    0.37994   0.62006   0.74012   0.00000  Uiso   1.00
Co242  Co    0.62006   0.37994   0.25988   0.00000  Uiso   1.00
Co243  Co    0.74012   0.62006   0.37994   0.00000  Uiso   1.00
Co244  Co    0.74012   0.37994   0.37994   0.00000  Uiso   1.00
Co245  Co    0.74012   0.37994   0.62006   0.00000  Uiso   1.00
Co246  Co    0.62006   0.37994   0.74012   0.00000  Uiso   1.00
Co247  Co    0.74012   0.62006   0.62006   0.00000  Uiso   1.00
Co248  Co    0.62006   0.62006   0.74012   0.00000  Uiso   1.00
Co249  Co    0.50000   0.43997   0.80015   0.00000  Uiso   1.00
Co250  Co    0.50000   0.56003   0.19985   0.00000  Uiso   1.00
Co251  Co    0.19985   0.50000   0.43997   0.00000  Uiso   1.00
Co252  Co    0.19985   0.50000   0.56003   0.00000  Uiso   1.00
Co253  Co    0.50000   0.43997   0.19985   0.00000  Uiso   1.00
Co254  Co    0.50000   0.80015   0.43997   0.00000  Uiso   1.00
Co255  Co    0.43997   0.50000   0.19985   0.00000  Uiso   1.00
Co256  Pt    0.25988   0.56003   0.31991   0.00000  Uiso   1.00
Co257  Pt    0.43997   0.74012   0.31991   0.00000  Uiso   1.00
Co258  Pt    0.25988   0.68009   0.56003   0.00000  Uiso   1.00
Co259  Pt    0.31991   0.74012   0.56003   0.00000  Uiso   1.00
Co260  Pt    0.31991   0.74012   0.43997   0.00000  Uiso   1.00
Co261  Co    0.43997   0.50000   0.80015   0.00000  Uiso   1.00
Co262  Co    0.19985   0.56003   0.50000   0.00000  Uiso   1.00
Co263  Co    0.19985   0.43997   0.50000   0.00000  Uiso   1.00
Co264  Co    0.43997   0.80015   0.50000   0.00000  Uiso   1.00
Co265  Pt    0.31991   0.56003   0.25988   0.00000  Uiso   1.00
Co266  Pt    0.31991   0.56003   0.74012   0.00000  Uiso   1.00
Co267  Pt    0.25988   0.68009   0.43997   0.00000  Uiso   1.00
Co268  Pt    0.43997   0.68009   0.25988   0.00000  Uiso   1.00
Co269  Pt    0.56003   0.68009   0.25988   0.00000  Uiso   1.00
Co270  Co    0.50000   0.19985   0.56003   0.00000  Uiso   1.00
Co271  Co    0.56003   0.80015   0.50000   0.00000  Uiso   1.00
Co272  Co    0.50000   0.19985   0.43997   0.00000  Uiso   1.00
Pt273  Pt    0.31991   0.43997   0.74012   0.00000  Uiso   1.00
Pt274  Co    0.56003   0.19985   0.50000   0.00000  Uiso   1.00
Pt275  Co    0.56003   0.50000   0.19985   0.00000  Uiso   1.00
Pt276  Pt    0.56003   0.31991   0.74012   0.00000  Uiso   1.00
Pt277  Co    0.43997   0.19985   0.50000   0.00000  Uiso   1.00
Pt278  Pt    0.56003   0.31991   0.25988   0.00000  Uiso   1.00
Pt279  Pt    0.43997   0.25988   0.31991   0.00000  Uiso   1.00
Pt280  Pt    0.25988   0.31991   0.43997   0.00000  Uiso   1.00
Pt281  Pt    0.25988   0.31991   0.56003   0.00000  Uiso   1.00
Pt282  Pt    0.31991   0.25988   0.56003   0.00000  Uiso   1.00
Pt283  Pt    0.31991   0.25988   0.43997   0.00000  Uiso   1.00
Pt284  Pt    0.43997   0.31991   0.25988   0.00000  Uiso   1.00
Pt285  Pt    0.31991   0.43997   0.25988   0.00000  Uiso   1.00
Pt286  Pt    0.43997   0.31991   0.74012   0.00000  Uiso   1.00
Pt287  Pt    0.25988   0.43997   0.31991   0.00000  Uiso   1.00
Pt288  Pt    0.74012   0.31991   0.43997   0.00000  Uiso   1.00
Pt289  Pt    0.56003   0.74012   0.31991   0.00000  Uiso   1.00
Pt290  Pt    0.25988   0.56003   0.68009   0.00000  Uiso   1.00
Pt291  Co    0.50000   0.80015   0.56003   0.00000  Uiso   1.00
Pt292  Pt    0.25988   0.43997   0.68009   0.00000  Uiso   1.00
Pt293  Pt    0.43997   0.25988   0.68009   0.00000  Uiso   1.00
Pt294  Pt    0.43997   0.74012   0.68009   0.00000  Uiso   1.00
Pt295  Pt    0.74012   0.31991   0.56003   0.00000  Uiso   1.00
Pt296  Pt    0.68009   0.25988   0.43997   0.00000  Uiso   1.00
Pt297  Pt    0.74012   0.43997   0.31991   0.00000  Uiso   1.00
Pt298  Pt    0.68009   0.25988   0.56003   0.00000  Uiso   1.00
Pt299  Pt    0.74012   0.56003   0.31991   0.00000  Uiso   1.00
Pt300  Pt    0.56003   0.25988   0.68009   0.00000  Uiso   1.00
Pt301  Pt    0.56003   0.25988   0.31991   0.00000  Uiso   1.00
Pt302  Pt    0.68009   0.56003   0.25988   0.00000  Uiso   1.00
Pt303  Pt    0.43997   0.68009   0.74012   0.00000  Uiso   1.00
Pt304  Pt    0.74012   0.68009   0.56003   0.00000  Uiso   1.00
Pt305  Pt    0.68009   0.74012   0.56003   0.00000  Uiso   1.00
Pt306  Pt    0.56003   0.74012   0.68009   0.00000  Uiso   1.00
Pt307  Co    0.80015   0.50000   0.56003   0.00000  Uiso   1.00
Pt308  Pt    0.68009   0.74012   0.43997   0.00000  Uiso   1.00
Pt309  Co    0.80015   0.50000   0.43997   0.00000  Uiso   1.00
Pt310  Co    0.80015   0.43997   0.50000   0.00000  Uiso   1.00
Pt311  Pt    0.74012   0.68009   0.43997   0.00000  Uiso   1.00
Pt312  Co    0.80015   0.56003   0.50000   0.00000  Uiso   1.00
Pt313  Pt    0.68009   0.43997   0.25988   0.00000  Uiso   1.00
Pt314  Pt    0.56003   0.68009   0.74012   0.00000  Uiso   1.00
Pt315  Co    0.56003   0.50000   0.80015   0.00000  Uiso   1.00
Pt316  Co    0.50000   0.56003   0.80015   0.00000  Uiso   1.00
Pt317  Pt    0.74012   0.56003   0.68009   0.00000  Uiso   1.00
Pt318  Pt    0.74012   0.43997   0.68009   0.00000  Uiso   1.00
Pt319  Pt    0.68009   0.56003   0.74012   0.00000  Uiso   1.00
Pt320  Pt    0.68009   0.43997   0.74012   0.00000  Uiso   1.00
Pt321  Pt    0.37994   0.43997   0.19985   0.00000  Uiso   1.00
Pt322  Pt    0.37994   0.43997   0.80015   0.00000  Uiso   1.00
Pt323  Pt    0.19985   0.56003   0.37994   0.00000  Uiso   1.00
Pt324  Pt    0.19985   0.43997   0.37994   0.00000  Uiso   1.00
Pt325  Pt    0.19985   0.62006   0.43997   0.00000  Uiso   1.00
Pt326  Pt    0.43997   0.80015   0.37994   0.00000  Uiso   1.00
Pt327  Pt    0.37994   0.56003   0.80015   0.00000  Uiso   1.00
Pt328  Pt    0.37994   0.56003   0.19985   0.00000  Uiso   1.00
Pt329  Pt    0.37994   0.80015   0.56003   0.00000  Uiso   1.00
Pt330  Pt    0.37994   0.80015   0.43997   0.00000  Uiso   1.00
Pt331  Pt    0.19985   0.62006   0.56003   0.00000  Uiso   1.00
Pt332  Pt    0.43997   0.62006   0.19985   0.00000  Uiso   1.00
Pt333  Pt    0.19985   0.43997   0.62006   0.00000  Uiso   1.00
Pt334  Pt    0.19985   0.56003   0.62006   0.00000  Uiso   1.00
Pt335  Pt    0.19985   0.37994   0.43997   0.00000  Uiso   1.00
Pt336  Pt    0.37994   0.19985   0.43997   0.00000  Uiso   1.00
Pt337  Pt    0.56003   0.80015   0.62006   0.00000  Uiso   1.00
Pt338  Pt    0.56003   0.80015   0.37994   0.00000  Uiso   1.00
Pt339  Pt    0.43997   0.80015   0.62006   0.00000  Uiso   1.00
Pt340  Pt    0.62006   0.80015   0.56003   0.00000  Uiso   1.00
Pt341  Pt    0.62006   0.80015   0.43997   0.00000  Uiso   1.00
Pt342  Pt    0.43997   0.19985   0.62006   0.00000  Uiso   1.00
Pt343  Pt    0.56003   0.62006   0.19985   0.00000  Uiso   1.00
Pt344  Pt    0.62006   0.19985   0.56003   0.00000  Uiso   1.00
Pt345  Pt    0.37994   0.19985   0.56003   0.00000  Uiso   1.00
Pt346  Pt    0.62006   0.19985   0.43997   0.00000  Uiso   1.00
Pt347  Pt    0.43997   0.19985   0.37994   0.00000  Uiso   1.00
Pt348  Pt    0.62006   0.43997   0.19985   0.00000  Uiso   1.00
Pt349  Pt    0.43997   0.37994   0.80015   0.00000  Uiso   1.00
Pt350  Pt    0.56003   0.19985   0.62006   0.00000  Uiso   1.00
Pt351  Pt    0.43997   0.37994   0.19985   0.00000  Uiso   1.00
Pt352  Pt    0.19985   0.37994   0.56003   0.00000  Uiso   1.00
Pt353  Pt    0.56003   0.37994   0.80015   0.00000  Uiso   1.00
Pt354  Pt    0.62006   0.56003   0.19985   0.00000  Uiso   1.00
Pt355  Pt    0.56003   0.37994   0.19985   0.00000  Uiso   1.00
Pt356  Pt    0.56003   0.19985   0.37994   0.00000  Uiso   1.00
Pt357  Pt    0.80015   0.56003   0.37994   0.00000  Uiso   1.00
Pt358  Pt    0.80015   0.43997   0.37994   0.00000  Uiso   1.00
Pt359  Pt    0.43997   0.62006   0.80015   0.00000  Uiso   1.00
Pt360  Pt    0.80015   0.62006   0.43997   0.00000  Uiso   1.00
Pt361  Pt    0.80015   0.56003   0.62006   0.00000  Uiso   1.00
Pt362  Pt    0.80015   0.37994   0.43997   0.00000  Uiso   1.00
Pt363  Pt    0.80015   0.62006   0.56003   0.00000  Uiso   1.00
Pt364  Pt    0.80015   0.37994   0.56003   0.00000  Uiso   1.00
Pt365  Pt    0.56003   0.62006   0.80015   0.00000  Uiso   1.00
Pt366  Pt    0.80015   0.43997   0.62006   0.00000  Uiso   1.00
Pt367  Pt    0.62006   0.56003   0.80015   0.00000  Uiso   1.00
Pt368  Pt    0.62006   0.43997   0.80015   0.00000  Uiso   1.00
