# generated using pymatgen
data_Ni161Pt176
_symmetry_space_group_name_H-M   'P 1'
_cell_length_a   30.00000000
_cell_length_b   30.00000000
_cell_length_c   30.00000000
_cell_angle_alpha   90.00000000
_cell_angle_beta   90.00000000
_cell_angle_gamma   90.00000000
_symmetry_Int_Tables_number   1
_chemical_formula_structural   Ni161Pt176
_chemical_formula_sum   'Ni161 Pt176'
_cell_volume   27000.00000000
_cell_formula_units_Z   1
loop_
 _symmetry_equiv_pos_site_id
 _symmetry_equiv_pos_as_xyz
  1  'x, y, z'
loop_
 _atom_site_type_symbol
 _atom_site_label
 _atom_site_symmetry_multiplicity
 _atom_site_fract_x
 _atom_site_fract_y
 _atom_site_fract_z
 _atom_site_occupancy
  Ni  Ni0  1  0.50000000  0.50000000  0.50000000  1
  Ni  Ni1  1  0.56392306  0.50000000  0.56392306  1
  Ni  Ni2  1  0.56392306  0.50000000  0.43607694  1
  Ni  Ni3  1  0.43607694  0.50000000  0.56392306  1
  Ni  Ni4  1  0.43607694  0.50000000  0.43607694  1
  Ni  Ni5  1  0.50000000  0.38324877  0.50000000  1
  Ni  Ni6  1  0.50000000  0.61675123  0.50000000  1
  Ni  Ni7  1  0.37127832  0.50000000  0.50000000  1
  Ni  Ni8  1  0.50000000  0.50000000  0.37127832  1
  Ni  Ni9  1  0.62872168  0.50000000  0.50000000  1
  Ni  Ni10  1  0.50000000  0.50000000  0.62872168  1
  Ni  Ni11  1  0.56388279  0.38198760  0.56388279  1
  Ni  Ni12  1  0.56388279  0.61801240  0.56388279  1
  Ni  Ni13  1  0.56388279  0.38198760  0.43611721  1
  Ni  Ni14  1  0.43611721  0.38198760  0.56388279  1
  Ni  Ni15  1  0.56388279  0.61801240  0.43611721  1
  Ni  Ni16  1  0.43611721  0.61801240  0.56388279  1
  Ni  Ni17  1  0.43611721  0.38198760  0.43611721  1
  Ni  Ni18  1  0.43611721  0.61801240  0.43611721  1
  Ni  Ni19  1  0.62826752  0.38214921  0.50000000  1
  Ni  Ni20  1  0.37173248  0.38214921  0.50000000  1
  Ni  Ni21  1  0.50000000  0.38214921  0.37173248  1
  Ni  Ni22  1  0.37173248  0.61785079  0.50000000  1
  Ni  Ni23  1  0.50000000  0.61785079  0.37173248  1
  Ni  Ni24  1  0.62826752  0.61785079  0.50000000  1
  Ni  Ni25  1  0.50000000  0.61785079  0.62826752  1
  Ni  Ni26  1  0.50000000  0.38214921  0.62826752  1
  Ni  Ni27  1  0.37339411  0.50000000  0.37339411  1
  Ni  Ni28  1  0.62660589  0.50000000  0.37339411  1
  Ni  Ni29  1  0.62660589  0.50000000  0.62660589  1
  Ni  Ni30  1  0.37339411  0.50000000  0.62660589  1
  Ni  Ni31  1  0.69515771  0.50000000  0.56244015  1
  Ni  Ni32  1  0.56244015  0.50000000  0.69515771  1
  Ni  Ni33  1  0.43755985  0.50000000  0.69515771  1
  Ni  Ni34  1  0.69515771  0.50000000  0.43755985  1
  Ni  Ni35  1  0.30484229  0.50000000  0.56244015  1
  Ni  Ni36  1  0.56244015  0.50000000  0.30484229  1
  Ni  Ni37  1  0.30484229  0.50000000  0.43755985  1
  Ni  Ni38  1  0.43755985  0.50000000  0.30484229  1
  Ni  Ni39  1  0.62752819  0.38126146  0.37247181  1
  Ni  Ni40  1  0.37247181  0.38126146  0.37247181  1
  Ni  Ni41  1  0.62752819  0.38126146  0.62752819  1
  Ni  Ni42  1  0.37247181  0.61873854  0.37247181  1
  Ni  Ni43  1  0.37247181  0.61873854  0.62752819  1
  Ni  Ni44  1  0.62752819  0.61873854  0.37247181  1
  Ni  Ni45  1  0.62752819  0.61873854  0.62752819  1
  Ni  Ni46  1  0.37247181  0.38126146  0.62752819  1
  Ni  Ni47  1  0.68950078  0.38180487  0.56299764  1
  Ni  Ni48  1  0.56299764  0.38180487  0.68950078  1
  Ni  Ni49  1  0.68950078  0.61819513  0.56299764  1
  Ni  Ni50  1  0.56299764  0.61819513  0.68950078  1
  Ni  Ni51  1  0.68950078  0.38180487  0.43700236  1
  Ni  Ni52  1  0.68950078  0.61819513  0.43700236  1
  Ni  Ni53  1  0.43700236  0.61819513  0.68950078  1
  Ni  Ni54  1  0.43700236  0.38180487  0.68950078  1
  Ni  Ni55  1  0.31049922  0.38180487  0.56299764  1
  Ni  Ni56  1  0.56299764  0.38180487  0.31049922  1
  Ni  Ni57  1  0.56299764  0.61819513  0.31049922  1
  Ni  Ni58  1  0.31049922  0.61819513  0.56299764  1
  Ni  Ni59  1  0.43700236  0.38180487  0.31049922  1
  Ni  Ni60  1  0.43700236  0.61819513  0.31049922  1
  Ni  Ni61  1  0.31049922  0.61819513  0.43700236  1
  Ni  Ni62  1  0.31049922  0.38180487  0.43700236  1
  Ni  Ni63  1  0.50000000  0.26331198  0.50000000  1
  Ni  Ni64  1  0.50000000  0.73668802  0.50000000  1
  Ni  Ni65  1  0.56298456  0.26465174  0.56298456  1
  Ni  Ni66  1  0.56298456  0.73534826  0.56298456  1
  Ni  Ni67  1  0.56298456  0.26465174  0.43701544  1
  Ni  Ni68  1  0.43701544  0.26465174  0.56298456  1
  Ni  Ni69  1  0.56298456  0.73534826  0.43701544  1
  Ni  Ni70  1  0.43701544  0.73534826  0.56298456  1
  Ni  Ni71  1  0.43701544  0.73534826  0.43701544  1
  Ni  Ni72  1  0.43701544  0.26465174  0.43701544  1
  Ni  Ni73  1  0.50000000  0.50000000  0.75218007  1
  Ni  Ni74  1  0.24781993  0.50000000  0.50000000  1
  Ni  Ni75  1  0.50000000  0.50000000  0.24781993  1
  Ni  Ni76  1  0.75218007  0.50000000  0.50000000  1
  Ni  Ni77  1  0.36945760  0.73750971  0.50000000  1
  Ni  Ni78  1  0.63054240  0.26249029  0.50000000  1
  Ni  Ni79  1  0.36945760  0.26249029  0.50000000  1
  Ni  Ni80  1  0.50000000  0.26249029  0.36945760  1
  Ni  Ni81  1  0.50000000  0.73750971  0.36945760  1
  Ni  Ni82  1  0.50000000  0.73750971  0.63054240  1
  Ni  Ni83  1  0.63054240  0.73750971  0.50000000  1
  Ni  Ni84  1  0.50000000  0.26249029  0.63054240  1
  Ni  Ni85  1  0.68925650  0.50000000  0.68925650  1
  Ni  Ni86  1  0.68925650  0.50000000  0.31074350  1
  Ni  Ni87  1  0.31074350  0.50000000  0.68925650  1
  Ni  Ni88  1  0.31074350  0.50000000  0.31074350  1
  Ni  Ni89  1  0.75472215  0.37986610  0.50000000  1
  Ni  Ni90  1  0.50000000  0.62013390  0.75472215  1
  Ni  Ni91  1  0.24527785  0.62013390  0.50000000  1
  Ni  Ni92  1  0.50000000  0.37986610  0.24527785  1
  Ni  Ni93  1  0.50000000  0.62013390  0.24527785  1
  Ni  Ni94  1  0.24527785  0.37986610  0.50000000  1
  Ni  Ni95  1  0.50000000  0.37986610  0.75472215  1
  Ni  Ni96  1  0.75472215  0.62013390  0.50000000  1
  Ni  Ni97  1  0.24359537  0.50000000  0.37431933  1
  Ni  Ni98  1  0.62568067  0.50000000  0.75640463  1
  Ni  Ni99  1  0.37431933  0.50000000  0.24359537  1
  Ni  Ni100  1  0.62568067  0.50000000  0.24359537  1
  Ni  Ni101  1  0.24359537  0.50000000  0.62568067  1
  Ni  Ni102  1  0.75640463  0.50000000  0.37431933  1
  Ni  Ni103  1  0.37431933  0.50000000  0.75640463  1
  Ni  Ni104  1  0.75640463  0.50000000  0.62568067  1
  Ni  Ni105  1  0.69039854  0.38127799  0.69039854  1
  Ni  Ni106  1  0.69039854  0.61872201  0.69039854  1
  Ni  Ni107  1  0.69039854  0.38127799  0.30960146  1
  Ni  Ni108  1  0.30960146  0.38127799  0.69039854  1
  Ni  Ni109  1  0.69039854  0.61872201  0.30960146  1
  Ni  Ni110  1  0.30960146  0.61872201  0.69039854  1
  Ni  Ni111  1  0.30960146  0.38127799  0.30960146  1
  Ni  Ni112  1  0.30960146  0.61872201  0.30960146  1
  Ni  Ni113  1  0.37213393  0.73629860  0.37213393  1
  Ni  Ni114  1  0.62786607  0.26370140  0.37213393  1
  Ni  Ni115  1  0.37213393  0.26370140  0.37213393  1
  Ni  Ni116  1  0.62786607  0.73629860  0.62786607  1
  Ni  Ni117  1  0.37213393  0.73629860  0.62786607  1
  Ni  Ni118  1  0.62786607  0.73629860  0.37213393  1
  Ni  Ni119  1  0.37213393  0.26370140  0.62786607  1
  Ni  Ni120  1  0.62786607  0.26370140  0.62786607  1
  Ni  Ni121  1  0.36819285  0.61930331  0.75009117  1
  Ni  Ni122  1  0.75009117  0.38069669  0.36819285  1
  Ni  Ni123  1  0.63180715  0.38069669  0.75009117  1
  Ni  Ni124  1  0.63180715  0.38069669  0.24990883  1
  Ni  Ni125  1  0.63180715  0.61930331  0.75009117  1
  Ni  Ni126  1  0.63180715  0.61930331  0.24990883  1
  Ni  Ni127  1  0.75009117  0.38069669  0.63180715  1
  Ni  Ni128  1  0.36819285  0.61930331  0.24990883  1
  Ni  Ni129  1  0.36819285  0.38069669  0.24990883  1
  Ni  Ni130  1  0.24990883  0.61930331  0.36819285  1
  Ni  Ni131  1  0.24990883  0.38069669  0.36819285  1
  Ni  Ni132  1  0.24990883  0.38069669  0.63180715  1
  Ni  Ni133  1  0.36819285  0.38069669  0.75009117  1
  Ni  Ni134  1  0.75009117  0.61930331  0.36819285  1
  Ni  Ni135  1  0.75009117  0.61930331  0.63180715  1
  Ni  Ni136  1  0.24990883  0.61930331  0.63180715  1
  Ni  Ni137  1  0.68842058  0.26541624  0.56591782  1
  Ni  Ni138  1  0.68842058  0.73458376  0.56591782  1
  Ni  Ni139  1  0.56591782  0.26541624  0.68842058  1
  Ni  Ni140  1  0.56591782  0.73458376  0.68842058  1
  Ni  Ni141  1  0.68842058  0.26541624  0.43408218  1
  Ni  Ni142  1  0.68842058  0.73458376  0.43408218  1
  Ni  Ni143  1  0.43408218  0.26541624  0.68842058  1
  Ni  Ni144  1  0.43408218  0.73458376  0.68842058  1
  Ni  Ni145  1  0.56591782  0.26541624  0.31157942  1
  Ni  Ni146  1  0.31157942  0.26541624  0.56591782  1
  Ni  Ni147  1  0.31157942  0.73458376  0.56591782  1
  Ni  Ni148  1  0.56591782  0.73458376  0.31157942  1
  Ni  Ni149  1  0.31157942  0.73458376  0.43408218  1
  Ni  Ni150  1  0.43408218  0.73458376  0.31157942  1
  Ni  Ni151  1  0.31157942  0.26541624  0.43408218  1
  Ni  Ni152  1  0.43408218  0.26541624  0.31157942  1
  Ni  Ni153  1  0.56086318  0.50000000  0.80735595  1
  Ni  Ni154  1  0.80735595  0.50000000  0.56086318  1
  Ni  Ni155  1  0.80735595  0.50000000  0.43913682  1
  Ni  Ni156  1  0.43913682  0.50000000  0.80735595  1
  Ni  Ni157  1  0.56086318  0.50000000  0.19264405  1
  Ni  Ni158  1  0.19264405  0.50000000  0.56086318  1
  Ni  Ni159  1  0.43913682  0.50000000  0.19264405  1
  Ni  Ni160  1  0.19264405  0.50000000  0.43913682  1
  Pt  Pt161  1  0.50000000  0.44129385  0.56427357  1
  Pt  Pt162  1  0.56427357  0.44129385  0.50000000  1
  Pt  Pt163  1  0.56427357  0.55870615  0.50000000  1
  Pt  Pt164  1  0.50000000  0.55870615  0.56427357  1
  Pt  Pt165  1  0.50000000  0.44129385  0.43572643  1
  Pt  Pt166  1  0.43572643  0.44129385  0.50000000  1
  Pt  Pt167  1  0.43572643  0.55870615  0.50000000  1
  Pt  Pt168  1  0.50000000  0.55870615  0.43572643  1
  Pt  Pt169  1  0.56344750  0.44114991  0.62799633  1
  Pt  Pt170  1  0.62799633  0.44114991  0.56344750  1
  Pt  Pt171  1  0.56344750  0.55885009  0.62799633  1
  Pt  Pt172  1  0.62799633  0.55885009  0.56344750  1
  Pt  Pt173  1  0.62799633  0.44114991  0.43655250  1
  Pt  Pt174  1  0.43655250  0.44114991  0.62799633  1
  Pt  Pt175  1  0.62799633  0.55885009  0.43655250  1
  Pt  Pt176  1  0.43655250  0.55885009  0.62799633  1
  Pt  Pt177  1  0.56344750  0.44114991  0.37200367  1
  Pt  Pt178  1  0.37200367  0.44114991  0.56344750  1
  Pt  Pt179  1  0.37200367  0.55885009  0.56344750  1
  Pt  Pt180  1  0.56344750  0.55885009  0.37200367  1
  Pt  Pt181  1  0.43655250  0.44114991  0.37200367  1
  Pt  Pt182  1  0.37200367  0.44114991  0.43655250  1
  Pt  Pt183  1  0.37200367  0.55885009  0.43655250  1
  Pt  Pt184  1  0.43655250  0.55885009  0.37200367  1
  Pt  Pt185  1  0.56371079  0.32313418  0.50000000  1
  Pt  Pt186  1  0.50000000  0.32313418  0.56371079  1
  Pt  Pt187  1  0.43628921  0.32313418  0.50000000  1
  Pt  Pt188  1  0.50000000  0.32313418  0.43628921  1
  Pt  Pt189  1  0.56371079  0.67686582  0.50000000  1
  Pt  Pt190  1  0.50000000  0.67686582  0.56371079  1
  Pt  Pt191  1  0.43628921  0.67686582  0.50000000  1
  Pt  Pt192  1  0.50000000  0.67686582  0.43628921  1
  Pt  Pt193  1  0.69329167  0.44074958  0.50000000  1
  Pt  Pt194  1  0.50000000  0.44074958  0.69329167  1
  Pt  Pt195  1  0.69329167  0.55925042  0.50000000  1
  Pt  Pt196  1  0.50000000  0.55925042  0.69329167  1
  Pt  Pt197  1  0.30670833  0.44074958  0.50000000  1
  Pt  Pt198  1  0.50000000  0.44074958  0.30670833  1
  Pt  Pt199  1  0.30670833  0.55925042  0.50000000  1
  Pt  Pt200  1  0.50000000  0.55925042  0.30670833  1
  Pt  Pt201  1  0.62729472  0.32313231  0.56298780  1
  Pt  Pt202  1  0.56298780  0.32313231  0.62729472  1
  Pt  Pt203  1  0.43701220  0.32313231  0.62729472  1
  Pt  Pt204  1  0.62729472  0.32313231  0.43701220  1
  Pt  Pt205  1  0.62729472  0.67686769  0.56298780  1
  Pt  Pt206  1  0.56298780  0.67686769  0.62729472  1
  Pt  Pt207  1  0.43701220  0.67686769  0.62729472  1
  Pt  Pt208  1  0.62729472  0.67686769  0.43701220  1
  Pt  Pt209  1  0.37270528  0.32313231  0.56298780  1
  Pt  Pt210  1  0.56298780  0.32313231  0.37270528  1
  Pt  Pt211  1  0.43701220  0.32313231  0.37270528  1
  Pt  Pt212  1  0.37270528  0.32313231  0.43701220  1
  Pt  Pt213  1  0.56298780  0.67686769  0.37270528  1
  Pt  Pt214  1  0.37270528  0.67686769  0.56298780  1
  Pt  Pt215  1  0.43701220  0.67686769  0.37270528  1
  Pt  Pt216  1  0.37270528  0.67686769  0.43701220  1
  Pt  Pt217  1  0.62554064  0.44195204  0.69033159  1
  Pt  Pt218  1  0.69033159  0.44195204  0.62554064  1
  Pt  Pt219  1  0.69033159  0.55804796  0.62554064  1
  Pt  Pt220  1  0.62554064  0.55804796  0.69033159  1
  Pt  Pt221  1  0.62554064  0.44195204  0.30966841  1
  Pt  Pt222  1  0.30966841  0.44195204  0.62554064  1
  Pt  Pt223  1  0.62554064  0.55804796  0.30966841  1
  Pt  Pt224  1  0.30966841  0.55804796  0.62554064  1
  Pt  Pt225  1  0.69033159  0.44195204  0.37445936  1
  Pt  Pt226  1  0.37445936  0.44195204  0.69033159  1
  Pt  Pt227  1  0.69033159  0.55804796  0.37445936  1
  Pt  Pt228  1  0.37445936  0.55804796  0.69033159  1
  Pt  Pt229  1  0.30966841  0.44195204  0.37445936  1
  Pt  Pt230  1  0.37445936  0.44195204  0.30966841  1
  Pt  Pt231  1  0.37445936  0.55804796  0.30966841  1
  Pt  Pt232  1  0.30966841  0.55804796  0.37445936  1
  Pt  Pt233  1  0.69413414  0.31962123  0.50000000  1
  Pt  Pt234  1  0.50000000  0.31962123  0.69413414  1
  Pt  Pt235  1  0.69413414  0.68037877  0.50000000  1
  Pt  Pt236  1  0.50000000  0.68037877  0.69413414  1
  Pt  Pt237  1  0.50000000  0.31962123  0.30586586  1
  Pt  Pt238  1  0.30586586  0.31962123  0.50000000  1
  Pt  Pt239  1  0.50000000  0.68037877  0.30586586  1
  Pt  Pt240  1  0.30586586  0.68037877  0.50000000  1
  Pt  Pt241  1  0.75989375  0.43329445  0.56888877  1
  Pt  Pt242  1  0.56888877  0.43329445  0.75989375  1
  Pt  Pt243  1  0.56888877  0.56670555  0.75989375  1
  Pt  Pt244  1  0.75989375  0.56670555  0.56888877  1
  Pt  Pt245  1  0.75989375  0.43329445  0.43111123  1
  Pt  Pt246  1  0.43111123  0.43329445  0.75989375  1
  Pt  Pt247  1  0.43111123  0.56670555  0.75989375  1
  Pt  Pt248  1  0.75989375  0.56670555  0.43111123  1
  Pt  Pt249  1  0.24010625  0.43329445  0.56888877  1
  Pt  Pt250  1  0.56888877  0.43329445  0.24010625  1
  Pt  Pt251  1  0.24010625  0.56670555  0.56888877  1
  Pt  Pt252  1  0.56888877  0.56670555  0.24010625  1
  Pt  Pt253  1  0.43111123  0.43329445  0.24010625  1
  Pt  Pt254  1  0.24010625  0.43329445  0.43111123  1
  Pt  Pt255  1  0.24010625  0.56670555  0.43111123  1
  Pt  Pt256  1  0.43111123  0.56670555  0.24010625  1
  Pt  Pt257  1  0.69147766  0.32089899  0.63049563  1
  Pt  Pt258  1  0.63049563  0.32089899  0.69147766  1
  Pt  Pt259  1  0.63049563  0.67910101  0.69147766  1
  Pt  Pt260  1  0.69147766  0.67910101  0.63049563  1
  Pt  Pt261  1  0.30852234  0.32089899  0.63049563  1
  Pt  Pt262  1  0.63049563  0.32089899  0.30852234  1
  Pt  Pt263  1  0.69147766  0.32089899  0.36950437  1
  Pt  Pt264  1  0.36950437  0.32089899  0.69147766  1
  Pt  Pt265  1  0.63049563  0.67910101  0.30852234  1
  Pt  Pt266  1  0.30852234  0.67910101  0.63049563  1
  Pt  Pt267  1  0.69147766  0.67910101  0.36950437  1
  Pt  Pt268  1  0.36950437  0.67910101  0.69147766  1
  Pt  Pt269  1  0.30852234  0.32089899  0.36950437  1
  Pt  Pt270  1  0.36950437  0.32089899  0.30852234  1
  Pt  Pt271  1  0.36950437  0.67910101  0.30852234  1
  Pt  Pt272  1  0.30852234  0.67910101  0.36950437  1
  Pt  Pt273  1  0.56391921  0.20590832  0.50000000  1
  Pt  Pt274  1  0.50000000  0.20590832  0.56391921  1
  Pt  Pt275  1  0.43608079  0.20590832  0.50000000  1
  Pt  Pt276  1  0.50000000  0.20590832  0.43608079  1
  Pt  Pt277  1  0.50000000  0.79409168  0.56391921  1
  Pt  Pt278  1  0.56391921  0.79409168  0.50000000  1
  Pt  Pt279  1  0.43608079  0.79409168  0.50000000  1
  Pt  Pt280  1  0.50000000  0.79409168  0.43608079  1
  Pt  Pt281  1  0.75189098  0.32660396  0.56722113  1
  Pt  Pt282  1  0.56722113  0.32660396  0.75189098  1
  Pt  Pt283  1  0.75189098  0.32660396  0.43277887  1
  Pt  Pt284  1  0.43277887  0.32660396  0.75189098  1
  Pt  Pt285  1  0.56722113  0.67339604  0.75189098  1
  Pt  Pt286  1  0.75189098  0.67339604  0.56722113  1
  Pt  Pt287  1  0.75189098  0.67339604  0.43277887  1
  Pt  Pt288  1  0.43277887  0.67339604  0.75189098  1
  Pt  Pt289  1  0.24810902  0.32660396  0.56722113  1
  Pt  Pt290  1  0.56722113  0.32660396  0.24810902  1
  Pt  Pt291  1  0.43277887  0.32660396  0.24810902  1
  Pt  Pt292  1  0.24810902  0.32660396  0.43277887  1
  Pt  Pt293  1  0.56722113  0.67339604  0.24810902  1
  Pt  Pt294  1  0.24810902  0.67339604  0.56722113  1
  Pt  Pt295  1  0.24810902  0.67339604  0.43277887  1
  Pt  Pt296  1  0.43277887  0.67339604  0.24810902  1
  Pt  Pt297  1  0.68833164  0.44268511  0.75194036  1
  Pt  Pt298  1  0.75194036  0.44268511  0.68833164  1
  Pt  Pt299  1  0.75194036  0.55731489  0.68833164  1
  Pt  Pt300  1  0.68833164  0.55731489  0.75194036  1
  Pt  Pt301  1  0.81317037  0.44230989  0.50000000  1
  Pt  Pt302  1  0.50000000  0.44230989  0.81317037  1
  Pt  Pt303  1  0.75194036  0.44268511  0.31166836  1
  Pt  Pt304  1  0.31166836  0.44268511  0.75194036  1
  Pt  Pt305  1  0.81317037  0.55769011  0.50000000  1
  Pt  Pt306  1  0.50000000  0.55769011  0.81317037  1
  Pt  Pt307  1  0.75194036  0.55731489  0.31166836  1
  Pt  Pt308  1  0.31166836  0.55731489  0.75194036  1
  Pt  Pt309  1  0.50000000  0.44230989  0.18682963  1
  Pt  Pt310  1  0.24805964  0.44268511  0.68833164  1
  Pt  Pt311  1  0.18682963  0.44230989  0.50000000  1
  Pt  Pt312  1  0.68833164  0.44268511  0.24805964  1
  Pt  Pt313  1  0.68833164  0.55731489  0.24805964  1
  Pt  Pt314  1  0.18682963  0.55769011  0.50000000  1
  Pt  Pt315  1  0.24805964  0.55731489  0.68833164  1
  Pt  Pt316  1  0.50000000  0.55769011  0.18682963  1
  Pt  Pt317  1  0.31166836  0.44268511  0.24805964  1
  Pt  Pt318  1  0.24805964  0.44268511  0.31166836  1
  Pt  Pt319  1  0.24805964  0.55731489  0.31166836  1
  Pt  Pt320  1  0.31166836  0.55731489  0.24805964  1
  Pt  Pt321  1  0.56380924  0.20890492  0.62697452  1
  Pt  Pt322  1  0.62697452  0.20890492  0.56380924  1
  Pt  Pt323  1  0.62697452  0.20890492  0.43619076  1
  Pt  Pt324  1  0.43619076  0.20890492  0.62697452  1
  Pt  Pt325  1  0.37302548  0.20890492  0.56380924  1
  Pt  Pt326  1  0.56380924  0.20890492  0.37302548  1
  Pt  Pt327  1  0.56380924  0.79109508  0.62697452  1
  Pt  Pt328  1  0.62697452  0.79109508  0.56380924  1
  Pt  Pt329  1  0.43619076  0.20890492  0.37302548  1
  Pt  Pt330  1  0.37302548  0.20890492  0.43619076  1
  Pt  Pt331  1  0.43619076  0.79109508  0.62697452  1
  Pt  Pt332  1  0.62697452  0.79109508  0.43619076  1
  Pt  Pt333  1  0.37302548  0.79109508  0.56380924  1
  Pt  Pt334  1  0.56380924  0.79109508  0.37302548  1
  Pt  Pt335  1  0.43619076  0.79109508  0.37302548  1
  Pt  Pt336  1  0.37302548  0.79109508  0.43619076  1
