# generated using pymatgen
data_Ni161HPt176
_symmetry_space_group_name_H-M   'P 1'
_cell_length_a   30.00000000
_cell_length_b   30.00000000
_cell_length_c   30.00000000
_cell_angle_alpha   90.00000000
_cell_angle_beta   90.00000000
_cell_angle_gamma   90.00000000
_symmetry_Int_Tables_number   1
_chemical_formula_structural   Ni161HPt176
_chemical_formula_sum   'Ni161 H1 Pt176'
_cell_volume   27000.00000000
_cell_formula_units_Z   1
loop_
 _symmetry_equiv_pos_site_id
 _symmetry_equiv_pos_as_xyz
  1  'x, y, z'
loop_
 _atom_site_type_symbol
 _atom_site_label
 _atom_site_symmetry_multiplicity
 _atom_site_fract_x
 _atom_site_fract_y
 _atom_site_fract_z
 _atom_site_occupancy
  Ni  Ni0  1  0.50000076  0.49998377  0.50000994  1
  Ni  Ni1  1  0.56397667  0.49995595  0.56398833  1
  Ni  Ni2  1  0.56399378  0.49999461  0.43599917  1
  Ni  Ni3  1  0.43602954  0.49996386  0.56398831  1
  Ni  Ni4  1  0.43598613  0.49999418  0.43597891  1
  Ni  Ni5  1  0.50000294  0.38286462  0.49971835  1
  Ni  Ni6  1  0.49999497  0.61692979  0.49998366  1
  Ni  Ni7  1  0.37105628  0.49998596  0.49996357  1
  Ni  Ni8  1  0.49999352  0.49998589  0.37099427  1
  Ni  Ni9  1  0.62894236  0.49998327  0.49997724  1
  Ni  Ni10  1  0.50000049  0.49989236  0.62895858  1
  Ni  Ni11  1  0.56383856  0.38170164  0.56369314  1
  Ni  Ni12  1  0.56382345  0.61816431  0.56385829  1
  Ni  Ni13  1  0.56373506  0.38165358  0.43615001  1
  Ni  Ni14  1  0.43616203  0.38169797  0.56369074  1
  Ni  Ni15  1  0.56381711  0.61817228  0.43616319  1
  Ni  Ni16  1  0.43617757  0.61817089  0.56385070  1
  Ni  Ni17  1  0.43627819  0.38166082  0.43614538  1
  Ni  Ni18  1  0.43616532  0.61817488  0.43614830  1
  Ni  Ni19  1  0.62822130  0.38183508  0.50000894  1
  Ni  Ni20  1  0.37178926  0.38183462  0.49999960  1
  Ni  Ni21  1  0.50000375  0.38177958  0.37183517  1
  Ni  Ni22  1  0.37169559  0.61806333  0.50001239  1
  Ni  Ni23  1  0.49999741  0.61803231  0.37166444  1
  Ni  Ni24  1  0.62830903  0.61806063  0.50001585  1
  Ni  Ni25  1  0.49999077  0.61803472  0.62830191  1
  Ni  Ni26  1  0.50000203  0.38203288  0.62853480  1
  Ni  Ni27  1  0.37350430  0.49996658  0.37348709  1
  Ni  Ni28  1  0.62649525  0.49995960  0.37349772  1
  Ni  Ni29  1  0.62650818  0.49998346  0.62646101  1
  Ni  Ni30  1  0.37349590  0.49999189  0.62646289  1
  Ni  Ni31  1  0.69542197  0.50000740  0.56227293  1
  Ni  Ni32  1  0.56224290  0.49999774  0.69550872  1
  Ni  Ni33  1  0.43775324  0.50000241  0.69552289  1
  Ni  Ni34  1  0.69546604  0.50001074  0.43775959  1
  Ni  Ni35  1  0.30458706  0.50001126  0.56227405  1
  Ni  Ni36  1  0.56221900  0.49994504  0.30447966  1
  Ni  Ni37  1  0.30453809  0.50000709  0.43775604  1
  Ni  Ni38  1  0.43777643  0.49994669  0.30447969  1
  Ni  Ni39  1  0.62752715  0.38117489  0.37244042  1
  Ni  Ni40  1  0.37249192  0.38118103  0.37244510  1
  Ni  Ni41  1  0.62751794  0.38117388  0.62746095  1
  Ni  Ni42  1  0.37248298  0.61881154  0.37245412  1
  Ni  Ni43  1  0.37250268  0.61882423  0.62754029  1
  Ni  Ni44  1  0.62751075  0.61881195  0.37246179  1
  Ni  Ni45  1  0.62750015  0.61881497  0.62754041  1
  Ni  Ni46  1  0.37248313  0.38117228  0.62745525  1
  Ni  Ni47  1  0.68942277  0.38185401  0.56294317  1
  Ni  Ni48  1  0.56297386  0.38190534  0.68950212  1
  Ni  Ni49  1  0.68943395  0.61816115  0.56297018  1
  Ni  Ni50  1  0.56293310  0.61814304  0.68945800  1
  Ni  Ni51  1  0.68959142  0.38193407  0.43704850  1
  Ni  Ni52  1  0.68945169  0.61814475  0.43704954  1
  Ni  Ni53  1  0.43706192  0.61815108  0.68945735  1
  Ni  Ni54  1  0.43702799  0.38189973  0.68950651  1
  Ni  Ni55  1  0.31059053  0.38184972  0.56293886  1
  Ni  Ni56  1  0.56296249  0.38180560  0.31063086  1
  Ni  Ni57  1  0.56293388  0.61812542  0.31053602  1
  Ni  Ni58  1  0.31056370  0.61817054  0.56296715  1
  Ni  Ni59  1  0.43704238  0.38180686  0.31064979  1
  Ni  Ni60  1  0.43705856  0.61811897  0.31054507  1
  Ni  Ni61  1  0.31055049  0.61815521  0.43705769  1
  Ni  Ni62  1  0.31041725  0.38194049  0.43704316  1
  Ni  Ni63  1  0.50000255  0.26212998  0.49945216  1
  Ni  Ni64  1  0.49998245  0.73695649  0.49999222  1
  Ni  Ni65  1  0.56286765  0.26453242  0.56303725  1
  Ni  Ni66  1  0.56301434  0.73553235  0.56303142  1
  Ni  Ni67  1  0.56291710  0.26382917  0.43704714  1
  Ni  Ni68  1  0.43715099  0.26453688  0.56302676  1
  Ni  Ni69  1  0.56301052  0.73551180  0.43700123  1
  Ni  Ni70  1  0.43697605  0.73554166  0.56302827  1
  Ni  Ni71  1  0.43696833  0.73552436  0.43699108  1
  Ni  Ni72  1  0.43712482  0.26382962  0.43704748  1
  Ni  Ni73  1  0.50000719  0.50000873  0.75231193  1
  Ni  Ni74  1  0.24775955  0.50000023  0.50008236  1
  Ni  Ni75  1  0.50002530  0.49984820  0.24777985  1
  Ni  Ni76  1  0.75224523  0.49999979  0.50006808  1
  Ni  Ni77  1  0.36928684  0.73768257  0.49998965  1
  Ni  Ni78  1  0.63071164  0.26252833  0.50003233  1
  Ni  Ni79  1  0.36930266  0.26252787  0.50001859  1
  Ni  Ni80  1  0.50000679  0.26213199  0.36913155  1
  Ni  Ni81  1  0.49999155  0.73764084  0.36934407  1
  Ni  Ni82  1  0.49999490  0.73766730  0.63070006  1
  Ni  Ni83  1  0.63069495  0.73765776  0.49999903  1
  Ni  Ni84  1  0.50000628  0.26251431  0.63069059  1
  Ni  Ni85  1  0.68849893  0.50004253  0.68858812  1
  Ni  Ni86  1  0.68855488  0.50002149  0.31143093  1
  Ni  Ni87  1  0.31149319  0.50004381  0.68858775  1
  Ni  Ni88  1  0.31145367  0.50002832  0.31144496  1
  Ni  Ni89  1  0.75452681  0.37981835  0.50005479  1
  Ni  Ni90  1  0.50000140  0.62026818  0.75438234  1
  Ni  Ni91  1  0.24560996  0.62025935  0.50007141  1
  Ni  Ni92  1  0.50000142  0.37979189  0.24562965  1
  Ni  Ni93  1  0.50000500  0.62024844  0.24560517  1
  Ni  Ni94  1  0.24548226  0.37981753  0.50005583  1
  Ni  Ni95  1  0.50000210  0.37978379  0.75446484  1
  Ni  Ni96  1  0.75439302  0.62025138  0.50007873  1
  Ni  Ni97  1  0.24359043  0.50005365  0.37498590  1
  Ni  Ni98  1  0.62504202  0.50007923  0.75648963  1
  Ni  Ni99  1  0.37500426  0.49996683  0.24360921  1
  Ni  Ni100  1  0.62501143  0.49996494  0.24359876  1
  Ni  Ni101  1  0.24363003  0.50001439  0.62504289  1
  Ni  Ni102  1  0.75642305  0.50004705  0.37498467  1
  Ni  Ni103  1  0.37494706  0.50007779  0.75649623  1
  Ni  Ni104  1  0.75637739  0.50001170  0.62503739  1
  Ni  Ni105  1  0.69057177  0.38168743  0.69064757  1
  Ni  Ni106  1  0.69054332  0.61841383  0.69059322  1
  Ni  Ni107  1  0.69073246  0.38170671  0.30939811  1
  Ni  Ni108  1  0.30942106  0.38168609  0.69064703  1
  Ni  Ni109  1  0.69057946  0.61842057  0.30941440  1
  Ni  Ni110  1  0.30945143  0.61842133  0.69058375  1
  Ni  Ni111  1  0.30928079  0.38169643  0.30941102  1
  Ni  Ni112  1  0.30942178  0.61842218  0.30941111  1
  Ni  Ni113  1  0.37200061  0.73617223  0.37199063  1
  Ni  Ni114  1  0.62825157  0.26403190  0.37202033  1
  Ni  Ni115  1  0.37177141  0.26402751  0.37202508  1
  Ni  Ni116  1  0.62798095  0.73616975  0.62803339  1
  Ni  Ni117  1  0.37201939  0.73618097  0.62801708  1
  Ni  Ni118  1  0.62798170  0.73615510  0.37199997  1
  Ni  Ni119  1  0.37190781  0.26394465  0.62816948  1
  Ni  Ni120  1  0.62809740  0.26394897  0.62817366  1
  Ni  Ni121  1  0.36755590  0.61921486  0.75029230  1
  Ni  Ni122  1  0.75040637  0.38099669  0.36752616  1
  Ni  Ni123  1  0.63240934  0.38091536  0.75034654  1
  Ni  Ni124  1  0.63276003  0.38077777  0.24962340  1
  Ni  Ni125  1  0.63244319  0.61920168  0.75029057  1
  Ni  Ni126  1  0.63245479  0.61918559  0.24975371  1
  Ni  Ni127  1  0.75025397  0.38094312  0.63252557  1
  Ni  Ni128  1  0.36754224  0.61918175  0.24976647  1
  Ni  Ni129  1  0.36726152  0.38078836  0.24964444  1
  Ni  Ni130  1  0.24974667  0.61919215  0.36754071  1
  Ni  Ni131  1  0.24961728  0.38099870  0.36753840  1
  Ni  Ni132  1  0.24974094  0.38092514  0.63252272  1
  Ni  Ni133  1  0.36756743  0.38089653  0.75034756  1
  Ni  Ni134  1  0.75026412  0.61919424  0.36754620  1
  Ni  Ni135  1  0.75020549  0.61918415  0.63242998  1
  Ni  Ni136  1  0.24978678  0.61919844  0.63242554  1
  Ni  Ni137  1  0.68875917  0.26579999  0.56632799  1
  Ni  Ni138  1  0.68861750  0.73433142  0.56628095  1
  Ni  Ni139  1  0.56630232  0.26577362  0.68868915  1
  Ni  Ni140  1  0.56625261  0.73432830  0.68867962  1
  Ni  Ni141  1  0.68888987  0.26593245  0.43367339  1
  Ni  Ni142  1  0.68868265  0.73435300  0.43376343  1
  Ni  Ni143  1  0.43369150  0.26577026  0.68869894  1
  Ni  Ni144  1  0.43374459  0.73433086  0.68868221  1
  Ni  Ni145  1  0.56632045  0.26589568  0.31132179  1
  Ni  Ni146  1  0.31123942  0.26578367  0.56632161  1
  Ni  Ni147  1  0.31137293  0.73433431  0.56627249  1
  Ni  Ni148  1  0.56624693  0.73431733  0.31134180  1
  Ni  Ni149  1  0.31131935  0.73433351  0.43376449  1
  Ni  Ni150  1  0.43373731  0.73430768  0.31134188  1
  Ni  Ni151  1  0.31111401  0.26591954  0.43367520  1
  Ni  Ni152  1  0.43368488  0.26589182  0.31132278  1
  Ni  Ni153  1  0.56049571  0.50005993  0.80700699  1
  Ni  Ni154  1  0.80699721  0.50000968  0.56062632  1
  Ni  Ni155  1  0.80695802  0.50002329  0.43945722  1
  Ni  Ni156  1  0.43951164  0.50005889  0.80698032  1
  Ni  Ni157  1  0.56043039  0.49992752  0.19319027  1
  Ni  Ni158  1  0.19299635  0.50001678  0.56063436  1
  Ni  Ni159  1  0.43958991  0.49992433  0.19322912  1
  Ni  Ni160  1  0.19304945  0.50001944  0.43945870  1
  H  H161  1  0.50044694  0.14988857  0.43217229  1
  Pt  Pt162  1  0.50000698  0.44113177  0.56425832  1
  Pt  Pt163  1  0.56426278  0.44119175  0.49996407  1
  Pt  Pt164  1  0.56428132  0.55873563  0.49999541  1
  Pt  Pt165  1  0.49999422  0.55874763  0.56428144  1
  Pt  Pt166  1  0.50000485  0.44119818  0.43567390  1
  Pt  Pt167  1  0.43575169  0.44119651  0.49995976  1
  Pt  Pt168  1  0.43570903  0.55873943  0.49999280  1
  Pt  Pt169  1  0.49999515  0.55871196  0.43567652  1
  Pt  Pt170  1  0.56344153  0.44103203  0.62793708  1
  Pt  Pt171  1  0.62792186  0.44102028  0.56331002  1
  Pt  Pt172  1  0.56337359  0.55888685  0.62796838  1
  Pt  Pt173  1  0.62793909  0.55892772  0.56336836  1
  Pt  Pt174  1  0.62796732  0.44100959  0.43661078  1
  Pt  Pt175  1  0.43656530  0.44103024  0.62793918  1
  Pt  Pt176  1  0.62794734  0.55893407  0.43662056  1
  Pt  Pt177  1  0.43661951  0.55888983  0.62796718  1
  Pt  Pt178  1  0.56338166  0.44102972  0.37206371  1
  Pt  Pt179  1  0.37208809  0.44102361  0.56330898  1
  Pt  Pt180  1  0.37205892  0.55893416  0.56338123  1
  Pt  Pt181  1  0.56340421  0.55889970  0.37200156  1
  Pt  Pt182  1  0.43662305  0.44103754  0.37206549  1
  Pt  Pt183  1  0.37203323  0.44102768  0.43660941  1
  Pt  Pt184  1  0.37205179  0.55894478  0.43661674  1
  Pt  Pt185  1  0.43659227  0.55889597  0.37199168  1
  Pt  Pt186  1  0.56349930  0.32247258  0.49979742  1
  Pt  Pt187  1  0.50000636  0.32297569  0.56362943  1
  Pt  Pt188  1  0.43652056  0.32245809  0.49979169  1
  Pt  Pt189  1  0.50001623  0.32200948  0.43629340  1
  Pt  Pt190  1  0.56362122  0.67713411  0.50001621  1
  Pt  Pt191  1  0.49999136  0.67717247  0.56367299  1
  Pt  Pt192  1  0.43635758  0.67713278  0.50001143  1
  Pt  Pt193  1  0.49998586  0.67714043  0.43635466  1
  Pt  Pt194  1  0.69344178  0.44072943  0.50002358  1
  Pt  Pt195  1  0.49999898  0.44067889  0.69345676  1
  Pt  Pt196  1  0.69343916  0.55929205  0.49998924  1
  Pt  Pt197  1  0.49999353  0.55928595  0.69343715  1
  Pt  Pt198  1  0.30656826  0.44073454  0.50001751  1
  Pt  Pt199  1  0.49999888  0.44065050  0.30660524  1
  Pt  Pt200  1  0.30656856  0.55930047  0.49998922  1
  Pt  Pt201  1  0.49999311  0.55926304  0.30652730  1
  Pt  Pt202  1  0.62724769  0.32296479  0.56284412  1
  Pt  Pt203  1  0.56294185  0.32312192  0.62733654  1
  Pt  Pt204  1  0.43706513  0.32312021  0.62733367  1
  Pt  Pt205  1  0.62748590  0.32320488  0.43705283  1
  Pt  Pt206  1  0.62728581  0.67694067  0.56290942  1
  Pt  Pt207  1  0.56287778  0.67695695  0.62735070  1
  Pt  Pt208  1  0.43710274  0.67695962  0.62735549  1
  Pt  Pt209  1  0.62730650  0.67693806  0.43710631  1
  Pt  Pt210  1  0.37276703  0.32296716  0.56282663  1
  Pt  Pt211  1  0.56289651  0.32286247  0.37283076  1
  Pt  Pt212  1  0.43712110  0.32286605  0.37284741  1
  Pt  Pt213  1  0.37253205  0.32321037  0.43704840  1
  Pt  Pt214  1  0.56288388  0.67693559  0.37265713  1
  Pt  Pt215  1  0.37269569  0.67695753  0.56291162  1
  Pt  Pt216  1  0.43709322  0.67693301  0.37265447  1
  Pt  Pt217  1  0.37267207  0.67695099  0.43710323  1
  Pt  Pt218  1  0.62537615  0.44182748  0.69037745  1
  Pt  Pt219  1  0.69029370  0.44179070  0.62538849  1
  Pt  Pt220  1  0.69029694  0.55821482  0.62541252  1
  Pt  Pt221  1  0.62536496  0.55821252  0.69037209  1
  Pt  Pt222  1  0.62540127  0.44173681  0.30961357  1
  Pt  Pt223  1  0.30970215  0.44178867  0.62539776  1
  Pt  Pt224  1  0.62538837  0.55817707  0.30962700  1
  Pt  Pt225  1  0.30970412  0.55823087  0.62541984  1
  Pt  Pt226  1  0.69040160  0.44183583  0.37456412  1
  Pt  Pt227  1  0.37461203  0.44183233  0.69039148  1
  Pt  Pt228  1  0.69032963  0.55822767  0.37459559  1
  Pt  Pt229  1  0.37461873  0.55822187  0.69037294  1
  Pt  Pt230  1  0.30961049  0.44184689  0.37457510  1
  Pt  Pt231  1  0.37462257  0.44175063  0.30963062  1
  Pt  Pt232  1  0.37462802  0.55817677  0.30963311  1
  Pt  Pt233  1  0.30967976  0.55823209  0.37459807  1
  Pt  Pt234  1  0.69445200  0.31946718  0.50004740  1
  Pt  Pt235  1  0.49999990  0.31942048  0.69438294  1
  Pt  Pt236  1  0.69433352  0.68063974  0.50000486  1
  Pt  Pt237  1  0.49999307  0.68064106  0.69435148  1
  Pt  Pt238  1  0.50000790  0.31960202  0.30554156  1
  Pt  Pt239  1  0.30556139  0.31946185  0.50003829  1
  Pt  Pt240  1  0.49999932  0.68062661  0.30565013  1
  Pt  Pt241  1  0.30565553  0.68064778  0.49999628  1
  Pt  Pt242  1  0.76036556  0.43268258  0.56919006  1
  Pt  Pt243  1  0.56911851  0.43277197  0.76039626  1
  Pt  Pt244  1  0.56915863  0.56736177  0.76038095  1
  Pt  Pt245  1  0.76031321  0.56730699  0.56917759  1
  Pt  Pt246  1  0.76033078  0.43274583  0.43095033  1
  Pt  Pt247  1  0.43087605  0.43275639  0.76041106  1
  Pt  Pt248  1  0.43083023  0.56737024  0.76037731  1
  Pt  Pt249  1  0.76038066  0.56738074  0.43084095  1
  Pt  Pt250  1  0.23963393  0.43269165  0.56918553  1
  Pt  Pt251  1  0.56939045  0.43239018  0.23946119  1
  Pt  Pt252  1  0.23968751  0.56731706  0.56917576  1
  Pt  Pt253  1  0.56915959  0.56734916  0.23960537  1
  Pt  Pt254  1  0.43061644  0.43239232  0.23947807  1
  Pt  Pt255  1  0.23967773  0.43275956  0.43094872  1
  Pt  Pt256  1  0.23961505  0.56738700  0.43083574  1
  Pt  Pt257  1  0.43082416  0.56735716  0.23960854  1
  Pt  Pt258  1  0.69155230  0.32127460  0.63066153  1
  Pt  Pt259  1  0.63066141  0.32125059  0.69162014  1
  Pt  Pt260  1  0.63059104  0.67885391  0.69157669  1
  Pt  Pt261  1  0.69151133  0.67883989  0.63065455  1
  Pt  Pt262  1  0.30844606  0.32127085  0.63065440  1
  Pt  Pt263  1  0.63068496  0.32127353  0.30847836  1
  Pt  Pt264  1  0.69180497  0.32126607  0.36926059  1
  Pt  Pt265  1  0.36933937  0.32124690  0.69162169  1
  Pt  Pt266  1  0.63062463  0.67883569  0.30845975  1
  Pt  Pt267  1  0.30848752  0.67884102  0.63064257  1
  Pt  Pt268  1  0.69154978  0.67884648  0.36939308  1
  Pt  Pt269  1  0.36940674  0.67885985  0.69157404  1
  Pt  Pt270  1  0.30821873  0.32125884  0.36926259  1
  Pt  Pt271  1  0.36931855  0.32127414  0.30848696  1
  Pt  Pt272  1  0.36936855  0.67882834  0.30845265  1
  Pt  Pt273  1  0.30844716  0.67884627  0.36940536  1
  Pt  Pt274  1  0.56425146  0.20561645  0.50016680  1
  Pt  Pt275  1  0.50000777  0.20583051  0.56424538  1
  Pt  Pt276  1  0.43577925  0.20559782  0.50016147  1
  Pt  Pt277  1  0.50002448  0.20196791  0.43588021  1
  Pt  Pt278  1  0.49999175  0.79428927  0.56398757  1
  Pt  Pt279  1  0.56400342  0.79427867  0.50000918  1
  Pt  Pt280  1  0.43597454  0.79428133  0.50000939  1
  Pt  Pt281  1  0.49998892  0.79424527  0.43602543  1
  Pt  Pt282  1  0.75203951  0.32704599  0.56756460  1
  Pt  Pt283  1  0.56748829  0.32701090  0.75199651  1
  Pt  Pt284  1  0.75208294  0.32711555  0.43255352  1
  Pt  Pt285  1  0.43251586  0.32701966  0.75200756  1
  Pt  Pt286  1  0.56746177  0.67308120  0.75197371  1
  Pt  Pt287  1  0.75193265  0.67314041  0.56749170  1
  Pt  Pt288  1  0.75199806  0.67303585  0.43255764  1
  Pt  Pt289  1  0.43253424  0.67307981  0.75197098  1
  Pt  Pt290  1  0.24795013  0.32703795  0.56755442  1
  Pt  Pt291  1  0.56762493  0.32717230  0.24795554  1
  Pt  Pt292  1  0.43238051  0.32717669  0.24795405  1
  Pt  Pt293  1  0.24791256  0.32711679  0.43255247  1
  Pt  Pt294  1  0.56748138  0.67304150  0.24804494  1
  Pt  Pt295  1  0.24807275  0.67314511  0.56749561  1
  Pt  Pt296  1  0.24801213  0.67303696  0.43254397  1
  Pt  Pt297  1  0.43251114  0.67303705  0.24804322  1
  Pt  Pt298  1  0.68824581  0.44370659  0.75208550  1
  Pt  Pt299  1  0.75193924  0.44375545  0.68837370  1
  Pt  Pt300  1  0.75196599  0.55637185  0.68833052  1
  Pt  Pt301  1  0.68829084  0.55644733  0.75205038  1
  Pt  Pt302  1  0.81314463  0.44206732  0.50004975  1
  Pt  Pt303  1  0.49999988  0.44200534  0.81314640  1
  Pt  Pt304  1  0.75208357  0.44377690  0.31166791  1
  Pt  Pt305  1  0.31174288  0.44370940  0.75208787  1
  Pt  Pt306  1  0.81305600  0.55796760  0.50004372  1
  Pt  Pt307  1  0.49999534  0.55807976  0.81306471  1
  Pt  Pt308  1  0.75201288  0.55643449  0.31169477  1
  Pt  Pt309  1  0.31170513  0.55644983  0.75204971  1
  Pt  Pt310  1  0.50000053  0.44178855  0.18702632  1
  Pt  Pt311  1  0.24805315  0.44375106  0.68837439  1
  Pt  Pt312  1  0.18686343  0.44207694  0.50004212  1
  Pt  Pt313  1  0.68836676  0.44374378  0.24799863  1
  Pt  Pt314  1  0.68830196  0.55633774  0.24799645  1
  Pt  Pt315  1  0.18695913  0.55796803  0.50003711  1
  Pt  Pt316  1  0.24803595  0.55638056  0.68833056  1
  Pt  Pt317  1  0.50000378  0.55796974  0.18699262  1
  Pt  Pt318  1  0.31165095  0.44375082  0.24800309  1
  Pt  Pt319  1  0.24792490  0.44378267  0.31166799  1
  Pt  Pt320  1  0.24800490  0.55644219  0.31169470  1
  Pt  Pt321  1  0.31170518  0.55632843  0.24800110  1
  Pt  Pt322  1  0.56403266  0.20914957  0.62723514  1
  Pt  Pt323  1  0.62720118  0.20927706  0.56411124  1
  Pt  Pt324  1  0.62767614  0.20931967  0.43608734  1
  Pt  Pt325  1  0.43597486  0.20914854  0.62724008  1
  Pt  Pt326  1  0.37280924  0.20926777  0.56409390  1
  Pt  Pt327  1  0.56426905  0.20931770  0.37270388  1
  Pt  Pt328  1  0.56393044  0.79100864  0.62718035  1
  Pt  Pt329  1  0.62713788  0.79099518  0.56398763  1
  Pt  Pt330  1  0.43575804  0.20929012  0.37271349  1
  Pt  Pt331  1  0.37234624  0.20930522  0.43609456  1
  Pt  Pt332  1  0.43606110  0.79100703  0.62718044  1
  Pt  Pt333  1  0.62714646  0.79099665  0.43600911  1
  Pt  Pt334  1  0.37285990  0.79099580  0.56398814  1
  Pt  Pt335  1  0.56393103  0.79100899  0.37284343  1
  Pt  Pt336  1  0.43605439  0.79101150  0.37283544  1
  Pt  Pt337  1  0.37284190  0.79101290  0.43600489  1
