# generated using pymatgen
data_Ni161HPt176
_symmetry_space_group_name_H-M   'P 1'
_cell_length_a   30.00000000
_cell_length_b   30.00000000
_cell_length_c   30.00000000
_cell_angle_alpha   90.00000000
_cell_angle_beta   90.00000000
_cell_angle_gamma   90.00000000
_symmetry_Int_Tables_number   1
_chemical_formula_structural   Ni161HPt176
_chemical_formula_sum   'Ni161 H1 Pt176'
_cell_volume   27000.00000000
_cell_formula_units_Z   1
loop_
 _symmetry_equiv_pos_site_id
 _symmetry_equiv_pos_as_xyz
  1  'x, y, z'
loop_
 _atom_site_type_symbol
 _atom_site_label
 _atom_site_symmetry_multiplicity
 _atom_site_fract_x
 _atom_site_fract_y
 _atom_site_fract_z
 _atom_site_occupancy
  Ni  Ni0  1  0.49990493  0.50009137  0.50003477  1
  Ni  Ni1  1  0.56393242  0.50001693  0.56385051  1
  Ni  Ni2  1  0.56391423  0.49998241  0.43607908  1
  Ni  Ni3  1  0.43602558  0.50008070  0.56386772  1
  Ni  Ni4  1  0.43605755  0.50007333  0.43621418  1
  Ni  Ni5  1  0.50002512  0.38324157  0.49999199  1
  Ni  Ni6  1  0.50006269  0.61679531  0.49984152  1
  Ni  Ni7  1  0.37123674  0.50011971  0.50018329  1
  Ni  Ni8  1  0.49999742  0.49996185  0.37117865  1
  Ni  Ni9  1  0.62884490  0.49995558  0.49994650  1
  Ni  Ni10  1  0.50025190  0.49985935  0.62876626  1
  Ni  Ni11  1  0.56384617  0.38185044  0.56376296  1
  Ni  Ni12  1  0.56390998  0.61809181  0.56370429  1
  Ni  Ni13  1  0.56383685  0.38186322  0.43619151  1
  Ni  Ni14  1  0.43623484  0.38186258  0.56379700  1
  Ni  Ni15  1  0.56400677  0.61802449  0.43601907  1
  Ni  Ni16  1  0.43563965  0.61840074  0.56419501  1
  Ni  Ni17  1  0.43622066  0.38185892  0.43618629  1
  Ni  Ni18  1  0.43631753  0.61813600  0.43616808  1
  Ni  Ni19  1  0.62821305  0.38207207  0.49995920  1
  Ni  Ni20  1  0.37183618  0.38205928  0.50000587  1
  Ni  Ni21  1  0.50002766  0.38208083  0.37183338  1
  Ni  Ni22  1  0.37160356  0.61813344  0.50047076  1
  Ni  Ni23  1  0.50007175  0.61787324  0.37169079  1
  Ni  Ni24  1  0.62827720  0.61784721  0.49989575  1
  Ni  Ni25  1  0.49999345  0.61795014  0.62810124  1
  Ni  Ni26  1  0.50002888  0.38209337  0.62818153  1
  Ni  Ni27  1  0.37358224  0.49996696  0.37349753  1
  Ni  Ni28  1  0.62652683  0.49995585  0.37343827  1
  Ni  Ni29  1  0.62650155  0.49995301  0.62651556  1
  Ni  Ni30  1  0.37353095  0.50010843  0.62646250  1
  Ni  Ni31  1  0.69544104  0.49997640  0.56234338  1
  Ni  Ni32  1  0.56239675  0.49993287  0.69534715  1
  Ni  Ni33  1  0.43762698  0.50011873  0.69528132  1
  Ni  Ni34  1  0.69546347  0.49998108  0.43760308  1
  Ni  Ni35  1  0.30474635  0.50003046  0.56241668  1
  Ni  Ni36  1  0.56237620  0.49997889  0.30459942  1
  Ni  Ni37  1  0.30467636  0.49989333  0.43751811  1
  Ni  Ni38  1  0.43766071  0.49995846  0.30457445  1
  Ni  Ni39  1  0.62762106  0.38116363  0.37239418  1
  Ni  Ni40  1  0.37244817  0.38110881  0.37237018  1
  Ni  Ni41  1  0.62756864  0.38114338  0.62756280  1
  Ni  Ni42  1  0.37252366  0.61876038  0.37241624  1
  Ni  Ni43  1  0.37139475  0.61962498  0.62792966  1
  Ni  Ni44  1  0.62768285  0.61873654  0.37236701  1
  Ni  Ni45  1  0.62766490  0.61879616  0.62751397  1
  Ni  Ni46  1  0.37245779  0.38118466  0.62758984  1
  Ni  Ni47  1  0.68950176  0.38178872  0.56290736  1
  Ni  Ni48  1  0.56293772  0.38178900  0.68952856  1
  Ni  Ni49  1  0.68952785  0.61815830  0.56290286  1
  Ni  Ni50  1  0.56299549  0.61824133  0.68943478  1
  Ni  Ni51  1  0.68952087  0.38179238  0.43702098  1
  Ni  Ni52  1  0.68954087  0.61813898  0.43705011  1
  Ni  Ni53  1  0.43694223  0.61829106  0.68915947  1
  Ni  Ni54  1  0.43705360  0.38180217  0.68946156  1
  Ni  Ni55  1  0.31052882  0.38177929  0.56294636  1
  Ni  Ni56  1  0.56292372  0.38177418  0.31048344  1
  Ni  Ni57  1  0.56296063  0.61818061  0.31041206  1
  Ni  Ni58  1  0.31038423  0.61851256  0.56326163  1
  Ni  Ni59  1  0.43711934  0.38175135  0.31046713  1
  Ni  Ni60  1  0.43710814  0.61819950  0.31047759  1
  Ni  Ni61  1  0.31049555  0.61806919  0.43704403  1
  Ni  Ni62  1  0.31054438  0.38178760  0.43706067  1
  Ni  Ni63  1  0.50001266  0.26301247  0.49999968  1
  Ni  Ni64  1  0.50010386  0.73677043  0.49995097  1
  Ni  Ni65  1  0.56291604  0.26453253  0.56287865  1
  Ni  Ni66  1  0.56299415  0.73534780  0.56274700  1
  Ni  Ni67  1  0.56291324  0.26450509  0.43709684  1
  Ni  Ni68  1  0.43710490  0.26453416  0.56289898  1
  Ni  Ni69  1  0.56312107  0.73547437  0.43698116  1
  Ni  Ni70  1  0.43677744  0.73503716  0.56280375  1
  Ni  Ni71  1  0.43720214  0.73528700  0.43719236  1
  Ni  Ni72  1  0.43711480  0.26450600  0.43713509  1
  Ni  Ni73  1  0.50004714  0.50008822  0.75217223  1
  Ni  Ni74  1  0.24775980  0.49983641  0.49984359  1
  Ni  Ni75  1  0.50007761  0.49999458  0.24765536  1
  Ni  Ni76  1  0.75234232  0.49996233  0.50000767  1
  Ni  Ni77  1  0.36953988  0.73716582  0.50025654  1
  Ni  Ni78  1  0.63078045  0.26227379  0.49996507  1
  Ni  Ni79  1  0.36927433  0.26232869  0.50001112  1
  Ni  Ni80  1  0.50000495  0.26230831  0.36926985  1
  Ni  Ni81  1  0.50009174  0.73776800  0.36912116  1
  Ni  Ni82  1  0.50011457  0.73750100  0.63055590  1
  Ni  Ni83  1  0.63084274  0.73770533  0.49990721  1
  Ni  Ni84  1  0.49997656  0.26234757  0.63074896  1
  Ni  Ni85  1  0.68864825  0.49998035  0.68867132  1
  Ni  Ni86  1  0.68867113  0.49997916  0.31126005  1
  Ni  Ni87  1  0.31133170  0.50007093  0.68844118  1
  Ni  Ni88  1  0.31139172  0.49993895  0.31125865  1
  Ni  Ni89  1  0.75462029  0.37968503  0.49996477  1
  Ni  Ni90  1  0.50005646  0.62037527  0.75449945  1
  Ni  Ni91  1  0.24542627  0.61999742  0.49960420  1
  Ni  Ni92  1  0.49999929  0.37968854  0.24537788  1
  Ni  Ni93  1  0.50008169  0.62026352  0.24535281  1
  Ni  Ni94  1  0.24546790  0.37973547  0.50003336  1
  Ni  Ni95  1  0.49997310  0.37973940  0.75459776  1
  Ni  Ni96  1  0.75461618  0.62023028  0.49999582  1
  Ni  Ni97  1  0.24354996  0.49985567  0.37476896  1
  Ni  Ni98  1  0.62518949  0.49999239  0.75644078  1
  Ni  Ni99  1  0.37484801  0.49995300  0.24351504  1
  Ni  Ni100  1  0.62525037  0.49997424  0.24352804  1
  Ni  Ni101  1  0.24359329  0.49999229  0.62513614  1
  Ni  Ni102  1  0.75650494  0.50000697  0.37480949  1
  Ni  Ni103  1  0.37479329  0.50020508  0.75619295  1
  Ni  Ni104  1  0.75648242  0.49999423  0.62514241  1
  Ni  Ni105  1  0.69056364  0.38141316  0.69055615  1
  Ni  Ni106  1  0.69055573  0.61854534  0.69054215  1
  Ni  Ni107  1  0.69055323  0.38139490  0.30945829  1
  Ni  Ni108  1  0.30951191  0.38149698  0.69051678  1
  Ni  Ni109  1  0.69056666  0.61858496  0.30940590  1
  Ni  Ni110  1  0.30930239  0.61892515  0.69052547  1
  Ni  Ni111  1  0.30948552  0.38139038  0.30947171  1
  Ni  Ni112  1  0.30962083  0.61847179  0.30947548  1
  Ni  Ni113  1  0.37214272  0.73616800  0.37216999  1
  Ni  Ni114  1  0.62796225  0.26369306  0.37201208  1
  Ni  Ni115  1  0.37204760  0.26368936  0.37206809  1
  Ni  Ni116  1  0.62799631  0.73618428  0.62785753  1
  Ni  Ni117  1  0.37187725  0.73673558  0.62814874  1
  Ni  Ni118  1  0.62812778  0.73633394  0.37195769  1
  Ni  Ni119  1  0.37203568  0.26371163  0.62799872  1
  Ni  Ni120  1  0.62796936  0.26372447  0.62797789  1
  Ni  Ni121  1  0.36750485  0.61927530  0.75006080  1
  Ni  Ni122  1  0.75021811  0.38067164  0.36761728  1
  Ni  Ni123  1  0.63242348  0.38065964  0.75028110  1
  Ni  Ni124  1  0.63234615  0.38067412  0.24977402  1
  Ni  Ni125  1  0.63232716  0.61926469  0.75023836  1
  Ni  Ni126  1  0.63235657  0.61929939  0.24972532  1
  Ni  Ni127  1  0.75022343  0.38069475  0.63238361  1
  Ni  Ni128  1  0.36772907  0.61928012  0.24976812  1
  Ni  Ni129  1  0.36770063  0.38064914  0.24977542  1
  Ni  Ni130  1  0.24990469  0.61935089  0.36741480  1
  Ni  Ni131  1  0.24975891  0.38064524  0.36755738  1
  Ni  Ni132  1  0.24980910  0.38069902  0.63236730  1
  Ni  Ni133  1  0.36763287  0.38083061  0.75016161  1
  Ni  Ni134  1  0.75023389  0.61928330  0.36754209  1
  Ni  Ni135  1  0.75024581  0.61928666  0.63239985  1
  Ni  Ni136  1  0.24964804  0.61935449  0.63213900  1
  Ni  Ni137  1  0.68850691  0.26555314  0.56619259  1
  Ni  Ni138  1  0.68855365  0.73444498  0.56615996  1
  Ni  Ni139  1  0.56618572  0.26556510  0.68853739  1
  Ni  Ni140  1  0.56620532  0.73441653  0.68837870  1
  Ni  Ni141  1  0.68850178  0.26548863  0.43378657  1
  Ni  Ni142  1  0.68862668  0.73446052  0.43379638  1
  Ni  Ni143  1  0.43379222  0.26555394  0.68853399  1
  Ni  Ni144  1  0.43396850  0.73452890  0.68825829  1
  Ni  Ni145  1  0.56617362  0.26552712  0.31149114  1
  Ni  Ni146  1  0.31149196  0.26552857  0.56620716  1
  Ni  Ni147  1  0.31124772  0.73461288  0.56592222  1
  Ni  Ni148  1  0.56623315  0.73457013  0.31142706  1
  Ni  Ni149  1  0.31168150  0.73428073  0.43390185  1
  Ni  Ni150  1  0.43387813  0.73450787  0.31148209  1
  Ni  Ni151  1  0.31148119  0.26552187  0.43383437  1
  Ni  Ni152  1  0.43383803  0.26550788  0.31151817  1
  Ni  Ni153  1  0.56051749  0.50000329  0.80710261  1
  Ni  Ni154  1  0.80711964  0.49998462  0.56054090  1
  Ni  Ni155  1  0.80709156  0.50000632  0.43944997  1
  Ni  Ni156  1  0.43943826  0.50015094  0.80684016  1
  Ni  Ni157  1  0.56061403  0.49995905  0.19281969  1
  Ni  Ni158  1  0.19303946  0.50000795  0.56045512  1
  Ni  Ni159  1  0.43949091  0.49997558  0.19287995  1
  Ni  Ni160  1  0.19288922  0.49987077  0.43934116  1
  H  H161  1  0.27328178  0.71036855  0.66432277  1
  Pt  Pt162  1  0.50002349  0.44120920  0.56428189  1
  Pt  Pt163  1  0.56431749  0.44122586  0.49998567  1
  Pt  Pt164  1  0.56432708  0.55878452  0.49994015  1
  Pt  Pt165  1  0.49996167  0.55890725  0.56425493  1
  Pt  Pt166  1  0.49998864  0.44123101  0.43571044  1
  Pt  Pt167  1  0.43567308  0.44123662  0.50002343  1
  Pt  Pt168  1  0.43555594  0.55904593  0.50016065  1
  Pt  Pt169  1  0.50001301  0.55879274  0.43565755  1
  Pt  Pt170  1  0.56349430  0.44103347  0.62795394  1
  Pt  Pt171  1  0.62805042  0.44106992  0.56333979  1
  Pt  Pt172  1  0.56342214  0.55890153  0.62793487  1
  Pt  Pt173  1  0.62804804  0.55884648  0.56335678  1
  Pt  Pt174  1  0.62801497  0.44106690  0.43657010  1
  Pt  Pt175  1  0.43666212  0.44112722  0.62794725  1
  Pt  Pt176  1  0.62807322  0.55879017  0.43654109  1
  Pt  Pt177  1  0.43676867  0.55876561  0.62791934  1
  Pt  Pt178  1  0.56339188  0.44106527  0.37200072  1
  Pt  Pt179  1  0.37204943  0.44109418  0.56343759  1
  Pt  Pt180  1  0.37184012  0.55926464  0.56374579  1
  Pt  Pt181  1  0.56342095  0.55883974  0.37193314  1
  Pt  Pt182  1  0.43663738  0.44108975  0.37200348  1
  Pt  Pt183  1  0.37205876  0.44108906  0.43661671  1
  Pt  Pt184  1  0.37202897  0.55899591  0.43669700  1
  Pt  Pt185  1  0.43663751  0.55886884  0.37200518  1
  Pt  Pt186  1  0.56367040  0.32286337  0.49996466  1
  Pt  Pt187  1  0.50003185  0.32288573  0.56362702  1
  Pt  Pt188  1  0.43638506  0.32288187  0.49999318  1
  Pt  Pt189  1  0.50002181  0.32286776  0.43636022  1
  Pt  Pt190  1  0.56374772  0.67704316  0.49980466  1
  Pt  Pt191  1  0.49996772  0.67692024  0.56354388  1
  Pt  Pt192  1  0.43652784  0.67686634  0.49998591  1
  Pt  Pt193  1  0.50027961  0.67707918  0.43608669  1
  Pt  Pt194  1  0.69347527  0.44075871  0.49995862  1
  Pt  Pt195  1  0.50001690  0.44075568  0.69342568  1
  Pt  Pt196  1  0.69350691  0.55915745  0.49997305  1
  Pt  Pt197  1  0.50003011  0.55929698  0.69330552  1
  Pt  Pt198  1  0.30666480  0.44077348  0.50000363  1
  Pt  Pt199  1  0.50002098  0.44076045  0.30654495  1
  Pt  Pt200  1  0.30656397  0.55902084  0.49989762  1
  Pt  Pt201  1  0.50001365  0.55921011  0.30653293  1
  Pt  Pt202  1  0.62724311  0.32306145  0.56288920  1
  Pt  Pt203  1  0.56291384  0.32305691  0.62722223  1
  Pt  Pt204  1  0.43709865  0.32307111  0.62721335  1
  Pt  Pt205  1  0.62724603  0.32304355  0.43705085  1
  Pt  Pt206  1  0.62730782  0.67687339  0.56279078  1
  Pt  Pt207  1  0.56297575  0.67683719  0.62707901  1
  Pt  Pt208  1  0.43684127  0.67696866  0.62722727  1
  Pt  Pt209  1  0.62736412  0.67689349  0.43697012  1
  Pt  Pt210  1  0.37280389  0.32307324  0.56293718  1
  Pt  Pt211  1  0.56292637  0.32306167  0.37277309  1
  Pt  Pt212  1  0.43710191  0.32304233  0.37276973  1
  Pt  Pt213  1  0.37277946  0.32305739  0.43708092  1
  Pt  Pt214  1  0.56310021  0.67697019  0.37261791  1
  Pt  Pt215  1  0.37179362  0.67700654  0.56394070  1
  Pt  Pt216  1  0.43718265  0.67690544  0.37273505  1
  Pt  Pt217  1  0.37297030  0.67674181  0.43717463  1
  Pt  Pt218  1  0.62546389  0.44167521  0.69036049  1
  Pt  Pt219  1  0.69033440  0.44173864  0.62543474  1
  Pt  Pt220  1  0.69034307  0.55822336  0.62542536  1
  Pt  Pt221  1  0.62546490  0.55825855  0.69030194  1
  Pt  Pt222  1  0.62545054  0.44172559  0.30966314  1
  Pt  Pt223  1  0.30970003  0.44175567  0.62540030  1
  Pt  Pt224  1  0.62545901  0.55824634  0.30965185  1
  Pt  Pt225  1  0.30954629  0.55853927  0.62550755  1
  Pt  Pt226  1  0.69033639  0.44175796  0.37454292  1
  Pt  Pt227  1  0.37458986  0.44182972  0.69020407  1
  Pt  Pt228  1  0.69036716  0.55822192  0.37452750  1
  Pt  Pt229  1  0.37447831  0.55855270  0.68998993  1
  Pt  Pt230  1  0.30970214  0.44171655  0.37456568  1
  Pt  Pt231  1  0.37458717  0.44166791  0.30966996  1
  Pt  Pt232  1  0.37462758  0.55820154  0.30966824  1
  Pt  Pt233  1  0.30976413  0.55811126  0.37456239  1
  Pt  Pt234  1  0.69430121  0.31934916  0.49997201  1
  Pt  Pt235  1  0.49998730  0.31937949  0.69430882  1
  Pt  Pt236  1  0.69438170  0.68064823  0.49997199  1
  Pt  Pt237  1  0.50005351  0.68060353  0.69413656  1
  Pt  Pt238  1  0.50000963  0.31936487  0.30571283  1
  Pt  Pt239  1  0.30572005  0.31936365  0.50001987  1
  Pt  Pt240  1  0.50006415  0.68065504  0.30563125  1
  Pt  Pt241  1  0.30579731  0.68036953  0.49993973  1
  Pt  Pt242  1  0.76036203  0.43270657  0.56913759  1
  Pt  Pt243  1  0.56920046  0.43269392  0.76038648  1
  Pt  Pt244  1  0.56907489  0.56710236  0.76013365  1
  Pt  Pt245  1  0.76044818  0.56730280  0.56919668  1
  Pt  Pt246  1  0.76034128  0.43273965  0.43081032  1
  Pt  Pt247  1  0.43082166  0.43287679  0.76016544  1
  Pt  Pt248  1  0.43090779  0.56736239  0.76000269  1
  Pt  Pt249  1  0.76040270  0.56731762  0.43076477  1
  Pt  Pt250  1  0.23969565  0.43273800  0.56915777  1
  Pt  Pt251  1  0.56915253  0.43278794  0.23969576  1
  Pt  Pt252  1  0.23988993  0.56723646  0.56889616  1
  Pt  Pt253  1  0.56919940  0.56714702  0.23963337  1
  Pt  Pt254  1  0.43088999  0.43275199  0.23967604  1
  Pt  Pt255  1  0.23966603  0.43260515  0.43081789  1
  Pt  Pt256  1  0.23948152  0.56721052  0.43041836  1
  Pt  Pt257  1  0.43094515  0.56719313  0.23965759  1
  Pt  Pt258  1  0.69157786  0.32095980  0.63064847  1
  Pt  Pt259  1  0.63063531  0.32096006  0.69157232  1
  Pt  Pt260  1  0.63065332  0.67902108  0.69152048  1
  Pt  Pt261  1  0.69162389  0.67904383  0.63063433  1
  Pt  Pt262  1  0.30845421  0.32095181  0.63062115  1
  Pt  Pt263  1  0.63063652  0.32092460  0.30842217  1
  Pt  Pt264  1  0.69157804  0.32091755  0.36934309  1
  Pt  Pt265  1  0.36937649  0.32099805  0.69158314  1
  Pt  Pt266  1  0.63064410  0.67902858  0.30844165  1
  Pt  Pt267  1  0.30494832  0.68296888  0.63335919  1
  Pt  Pt268  1  0.69165886  0.67905473  0.36930331  1
  Pt  Pt269  1  0.36920817  0.67934763  0.69162036  1
  Pt  Pt270  1  0.30842431  0.32089819  0.36936134  1
  Pt  Pt271  1  0.36937413  0.32090460  0.30841458  1
  Pt  Pt272  1  0.36948083  0.67905810  0.30838418  1
  Pt  Pt273  1  0.30861915  0.67896292  0.36939280  1
  Pt  Pt274  1  0.56396489  0.20561204  0.50002503  1
  Pt  Pt275  1  0.49999110  0.20562198  0.56394276  1
  Pt  Pt276  1  0.43607003  0.20561279  0.50001191  1
  Pt  Pt277  1  0.50001869  0.20560068  0.43607272  1
  Pt  Pt278  1  0.50009225  0.79421748  0.56380668  1
  Pt  Pt279  1  0.56404061  0.79429804  0.49989514  1
  Pt  Pt280  1  0.43623684  0.79420138  0.50009401  1
  Pt  Pt281  1  0.50012273  0.79425604  0.43601380  1
  Pt  Pt282  1  0.75194105  0.32688214  0.56737798  1
  Pt  Pt283  1  0.56740487  0.32687355  0.75195881  1
  Pt  Pt284  1  0.75196071  0.32683302  0.43257349  1
  Pt  Pt285  1  0.43257714  0.32692067  0.75198432  1
  Pt  Pt286  1  0.56744486  0.67320304  0.75190785  1
  Pt  Pt287  1  0.75197957  0.67308353  0.56739581  1
  Pt  Pt288  1  0.75198977  0.67307988  0.43257568  1
  Pt  Pt289  1  0.43259094  0.67297974  0.75167542  1
  Pt  Pt290  1  0.24802083  0.32688797  0.56741336  1
  Pt  Pt291  1  0.56740729  0.32683489  0.24805237  1
  Pt  Pt292  1  0.43262486  0.32679351  0.24803617  1
  Pt  Pt293  1  0.24805824  0.32690195  0.43259898  1
  Pt  Pt294  1  0.56745792  0.67318238  0.24799408  1
  Pt  Pt295  1  0.24803384  0.67281701  0.56685001  1
  Pt  Pt296  1  0.24809380  0.67302283  0.43248823  1
  Pt  Pt297  1  0.43268863  0.67313651  0.24799592  1
  Pt  Pt298  1  0.68833874  0.44332723  0.75196008  1
  Pt  Pt299  1  0.75192445  0.44332908  0.68831011  1
  Pt  Pt300  1  0.75193747  0.55663149  0.68831357  1
  Pt  Pt301  1  0.68834052  0.55664958  0.75194570  1
  Pt  Pt302  1  0.81319756  0.44194763  0.49996505  1
  Pt  Pt303  1  0.49991610  0.44205418  0.81305978  1
  Pt  Pt304  1  0.75195478  0.44334633  0.31168100  1
  Pt  Pt305  1  0.31169732  0.44351528  0.75183961  1
  Pt  Pt306  1  0.81316983  0.55799680  0.49996217  1
  Pt  Pt307  1  0.49997721  0.55812061  0.81308149  1
  Pt  Pt308  1  0.75193477  0.55661847  0.31162315  1
  Pt  Pt309  1  0.31156270  0.55658958  0.75168363  1
  Pt  Pt310  1  0.50003854  0.44194806  0.18682992  1
  Pt  Pt311  1  0.24807567  0.44330420  0.68827522  1
  Pt  Pt312  1  0.18686210  0.44193063  0.49999534  1
  Pt  Pt313  1  0.68833760  0.44321784  0.24805460  1
  Pt  Pt314  1  0.68830941  0.55673736  0.24803302  1
  Pt  Pt315  1  0.18696246  0.55788909  0.49983269  1
  Pt  Pt316  1  0.24792073  0.55683413  0.68814934  1
  Pt  Pt317  1  0.50007269  0.55801005  0.18675762  1
  Pt  Pt318  1  0.31174193  0.44322800  0.24802040  1
  Pt  Pt319  1  0.24812241  0.44327399  0.31161067  1
  Pt  Pt320  1  0.24814194  0.55660030  0.31170229  1
  Pt  Pt321  1  0.31174068  0.55667671  0.24802445  1
  Pt  Pt322  1  0.56392225  0.20894207  0.62702310  1
  Pt  Pt323  1  0.62702600  0.20889991  0.56396289  1
  Pt  Pt324  1  0.62698948  0.20884195  0.43601312  1
  Pt  Pt325  1  0.43605668  0.20889444  0.62704284  1
  Pt  Pt326  1  0.37297996  0.20889050  0.56395642  1
  Pt  Pt327  1  0.56392279  0.20886751  0.37294655  1
  Pt  Pt328  1  0.56397729  0.79103367  0.62686456  1
  Pt  Pt329  1  0.62707240  0.79110653  0.56390372  1
  Pt  Pt330  1  0.43606255  0.20887132  0.37301214  1
  Pt  Pt331  1  0.37298236  0.20885672  0.43608191  1
  Pt  Pt332  1  0.43626171  0.79103875  0.62655026  1
  Pt  Pt333  1  0.62718625  0.79117221  0.43597899  1
  Pt  Pt334  1  0.37291042  0.79111702  0.56376836  1
  Pt  Pt335  1  0.56407240  0.79119623  0.37293411  1
  Pt  Pt336  1  0.43603192  0.79103387  0.37315733  1
  Pt  Pt337  1  0.37313889  0.79097353  0.43637602  1
