# generated using pymatgen
data_Ni161HPt176
_symmetry_space_group_name_H-M   'P 1'
_cell_length_a   30.00000000
_cell_length_b   30.00000000
_cell_length_c   30.00000000
_cell_angle_alpha   90.00000000
_cell_angle_beta   90.00000000
_cell_angle_gamma   90.00000000
_symmetry_Int_Tables_number   1
_chemical_formula_structural   Ni161HPt176
_chemical_formula_sum   'Ni161 H1 Pt176'
_cell_volume   27000.00000000
_cell_formula_units_Z   1
loop_
 _symmetry_equiv_pos_site_id
 _symmetry_equiv_pos_as_xyz
  1  'x, y, z'
loop_
 _atom_site_type_symbol
 _atom_site_label
 _atom_site_symmetry_multiplicity
 _atom_site_fract_x
 _atom_site_fract_y
 _atom_site_fract_z
 _atom_site_occupancy
  Ni  Ni0  1  0.49997868  0.50009060  0.50009529  1
  Ni  Ni1  1  0.56383737  0.50006865  0.56398432  1
  Ni  Ni2  1  0.56395705  0.49997432  0.43606299  1
  Ni  Ni3  1  0.43609837  0.50008357  0.56401395  1
  Ni  Ni4  1  0.43611904  0.50001346  0.43603506  1
  Ni  Ni5  1  0.50003104  0.38314507  0.49998179  1
  Ni  Ni6  1  0.50014288  0.61687076  0.49994152  1
  Ni  Ni7  1  0.37118253  0.49986373  0.49973868  1
  Ni  Ni8  1  0.50005155  0.49995875  0.37109972  1
  Ni  Ni9  1  0.62888784  0.49997108  0.50002164  1
  Ni  Ni10  1  0.49982076  0.50013807  0.62881078  1
  Ni  Ni11  1  0.56384135  0.38181767  0.56380787  1
  Ni  Ni12  1  0.56384904  0.61817756  0.56371465  1
  Ni  Ni13  1  0.56383389  0.38182417  0.43616524  1
  Ni  Ni14  1  0.43619578  0.38182263  0.56379044  1
  Ni  Ni15  1  0.56398655  0.61809794  0.43598247  1
  Ni  Ni16  1  0.43578723  0.61848110  0.56436606  1
  Ni  Ni17  1  0.43622454  0.38180447  0.43613014  1
  Ni  Ni18  1  0.43627043  0.61813220  0.43606456  1
  Ni  Ni19  1  0.62818105  0.38202234  0.49998082  1
  Ni  Ni20  1  0.37180218  0.38202624  0.49997321  1
  Ni  Ni21  1  0.50002966  0.38200500  0.37177544  1
  Ni  Ni22  1  0.37186827  0.61800407  0.49999827  1
  Ni  Ni23  1  0.50010209  0.61792714  0.37170727  1
  Ni  Ni24  1  0.62833296  0.61794926  0.49994113  1
  Ni  Ni25  1  0.49951127  0.61821660  0.62842394  1
  Ni  Ni26  1  0.50000807  0.38200190  0.62817295  1
  Ni  Ni27  1  0.37347960  0.49995177  0.37349217  1
  Ni  Ni28  1  0.62656992  0.49995218  0.37347243  1
  Ni  Ni29  1  0.62652054  0.49997495  0.62643512  1
  Ni  Ni30  1  0.37351576  0.50009823  0.62648250  1
  Ni  Ni31  1  0.69546703  0.49996100  0.56231049  1
  Ni  Ni32  1  0.56243437  0.49990801  0.69534119  1
  Ni  Ni33  1  0.43763728  0.50003520  0.69530642  1
  Ni  Ni34  1  0.69541684  0.49998548  0.43767377  1
  Ni  Ni35  1  0.30468313  0.50009953  0.56230725  1
  Ni  Ni36  1  0.56233128  0.49997554  0.30451900  1
  Ni  Ni37  1  0.30464713  0.49994981  0.43762806  1
  Ni  Ni38  1  0.43770765  0.49997122  0.30453070  1
  Ni  Ni39  1  0.62758696  0.38114665  0.37240938  1
  Ni  Ni40  1  0.37243801  0.38111513  0.37242842  1
  Ni  Ni41  1  0.62763064  0.38109205  0.62754519  1
  Ni  Ni42  1  0.37249187  0.61879930  0.37233477  1
  Ni  Ni43  1  0.37206216  0.61964431  0.62853858  1
  Ni  Ni44  1  0.62763966  0.61876404  0.37232870  1
  Ni  Ni45  1  0.62756523  0.61878655  0.62746385  1
  Ni  Ni46  1  0.37243837  0.38116114  0.62752189  1
  Ni  Ni47  1  0.68953596  0.38178034  0.56290983  1
  Ni  Ni48  1  0.56294443  0.38183059  0.68944002  1
  Ni  Ni49  1  0.68953833  0.61817191  0.56292449  1
  Ni  Ni50  1  0.56295890  0.61805536  0.68948436  1
  Ni  Ni51  1  0.68950967  0.38180716  0.43704945  1
  Ni  Ni52  1  0.68959385  0.61814674  0.43703282  1
  Ni  Ni53  1  0.43666627  0.61851160  0.68960262  1
  Ni  Ni54  1  0.43705015  0.38180894  0.68945973  1
  Ni  Ni55  1  0.31053941  0.38183249  0.56294908  1
  Ni  Ni56  1  0.56298733  0.38180894  0.31048173  1
  Ni  Ni57  1  0.56296584  0.61811878  0.31046620  1
  Ni  Ni58  1  0.31081025  0.61825261  0.56304012  1
  Ni  Ni59  1  0.43705694  0.38180810  0.31050293  1
  Ni  Ni60  1  0.43707379  0.61812447  0.31046199  1
  Ni  Ni61  1  0.31055166  0.61819171  0.43696512  1
  Ni  Ni62  1  0.31046684  0.38181789  0.43703193  1
  Ni  Ni63  1  0.50001647  0.26299271  0.49998017  1
  Ni  Ni64  1  0.50003739  0.73677035  0.49991230  1
  Ni  Ni65  1  0.56292498  0.26448452  0.56291146  1
  Ni  Ni66  1  0.56283084  0.73530499  0.56282302  1
  Ni  Ni67  1  0.56294888  0.26448041  0.43705557  1
  Ni  Ni68  1  0.43708713  0.26450470  0.56291425  1
  Ni  Ni69  1  0.56304196  0.73549527  0.43685340  1
  Ni  Ni70  1  0.43711892  0.73505749  0.56323791  1
  Ni  Ni71  1  0.43720417  0.73535831  0.43696646  1
  Ni  Ni72  1  0.43709859  0.26450895  0.43705120  1
  Ni  Ni73  1  0.50011231  0.49983883  0.75221673  1
  Ni  Ni74  1  0.24782028  0.50008204  0.49996115  1
  Ni  Ni75  1  0.49997990  0.49994760  0.24768932  1
  Ni  Ni76  1  0.75231765  0.49998777  0.49993113  1
  Ni  Ni77  1  0.36950191  0.73747734  0.49987279  1
  Ni  Ni78  1  0.63071807  0.26229552  0.49998878  1
  Ni  Ni79  1  0.36930111  0.26233779  0.50001238  1
  Ni  Ni80  1  0.50003580  0.26226287  0.36925561  1
  Ni  Ni81  1  0.50009227  0.73769488  0.36920940  1
  Ni  Ni82  1  0.49968730  0.73721099  0.63040206  1
  Ni  Ni83  1  0.63083045  0.73777836  0.49991638  1
  Ni  Ni84  1  0.50000676  0.26230460  0.63067395  1
  Ni  Ni85  1  0.68866740  0.49994380  0.68851949  1
  Ni  Ni86  1  0.68869551  0.49997821  0.31139418  1
  Ni  Ni87  1  0.31157395  0.50007888  0.68860821  1
  Ni  Ni88  1  0.31137768  0.49996947  0.31139786  1
  Ni  Ni89  1  0.75458516  0.37966326  0.49999545  1
  Ni  Ni90  1  0.50032795  0.62008840  0.75448619  1
  Ni  Ni91  1  0.24552810  0.62037078  0.49988449  1
  Ni  Ni92  1  0.50003262  0.37965032  0.24544281  1
  Ni  Ni93  1  0.49998831  0.62025987  0.24543235  1
  Ni  Ni94  1  0.24545921  0.37972089  0.50001430  1
  Ni  Ni95  1  0.49998141  0.37971613  0.75446265  1
  Ni  Ni96  1  0.75459853  0.62027226  0.49992675  1
  Ni  Ni97  1  0.24355915  0.49997899  0.37483640  1
  Ni  Ni98  1  0.62513356  0.49988029  0.75644554  1
  Ni  Ni99  1  0.37490315  0.49998778  0.24350276  1
  Ni  Ni100  1  0.62513483  0.49999996  0.24349990  1
  Ni  Ni101  1  0.24379706  0.50019321  0.62512681  1
  Ni  Ni102  1  0.75646671  0.49997896  0.37478671  1
  Ni  Ni103  1  0.37490164  0.50002262  0.75638967  1
  Ni  Ni104  1  0.75649072  0.49993903  0.62509189  1
  Ni  Ni105  1  0.69054500  0.38141684  0.69052908  1
  Ni  Ni106  1  0.69053960  0.61844645  0.69038847  1
  Ni  Ni107  1  0.69054597  0.38142220  0.30943653  1
  Ni  Ni108  1  0.30946743  0.38151793  0.69050259  1
  Ni  Ni109  1  0.69059782  0.61855563  0.30943378  1
  Ni  Ni110  1  0.30939141  0.61889172  0.69064769  1
  Ni  Ni111  1  0.30944038  0.38144848  0.30941471  1
  Ni  Ni112  1  0.30943875  0.61851078  0.30941528  1
  Ni  Ni113  1  0.37212646  0.73616392  0.37199470  1
  Ni  Ni114  1  0.62799786  0.26371673  0.37202766  1
  Ni  Ni115  1  0.37201822  0.26374041  0.37200590  1
  Ni  Ni116  1  0.62784366  0.73616248  0.62786032  1
  Ni  Ni117  1  0.37175742  0.73673935  0.62806815  1
  Ni  Ni118  1  0.62805434  0.73632869  0.37187389  1
  Ni  Ni119  1  0.37200293  0.26373107  0.62795380  1
  Ni  Ni120  1  0.62796367  0.26370730  0.62794296  1
  Ni  Ni121  1  0.36776488  0.61934429  0.75032447  1
  Ni  Ni122  1  0.75026643  0.38069938  0.36763354  1
  Ni  Ni123  1  0.63246748  0.38067820  0.75025465  1
  Ni  Ni124  1  0.63241109  0.38068916  0.24974042  1
  Ni  Ni125  1  0.63262170  0.61931498  0.75012002  1
  Ni  Ni126  1  0.63249065  0.61925293  0.24972835  1
  Ni  Ni127  1  0.75027290  0.38066335  0.63233647  1
  Ni  Ni128  1  0.36757794  0.61923538  0.24973343  1
  Ni  Ni129  1  0.36757552  0.38072036  0.24973299  1
  Ni  Ni130  1  0.24973086  0.61921047  0.36764755  1
  Ni  Ni131  1  0.24969002  0.38070102  0.36755506  1
  Ni  Ni132  1  0.24978615  0.38084432  0.63240138  1
  Ni  Ni133  1  0.36760884  0.38073777  0.75022635  1
  Ni  Ni134  1  0.75031697  0.61926660  0.36763238  1
  Ni  Ni135  1  0.75026804  0.61925729  0.63231942  1
  Ni  Ni136  1  0.24982614  0.61922164  0.63243275  1
  Ni  Ni137  1  0.68854019  0.26555622  0.56615577  1
  Ni  Ni138  1  0.68854800  0.73443867  0.56612684  1
  Ni  Ni139  1  0.56619164  0.26557702  0.68852714  1
  Ni  Ni140  1  0.56610278  0.73422730  0.68836117  1
  Ni  Ni141  1  0.68857257  0.26556829  0.43382563  1
  Ni  Ni142  1  0.68862094  0.73452357  0.43377036  1
  Ni  Ni143  1  0.43379293  0.26558653  0.68851726  1
  Ni  Ni144  1  0.43394571  0.73458683  0.68877909  1
  Ni  Ni145  1  0.56621322  0.26553800  0.31145785  1
  Ni  Ni146  1  0.31143520  0.26559909  0.56620726  1
  Ni  Ni147  1  0.31163375  0.73447495  0.56598863  1
  Ni  Ni148  1  0.56621279  0.73440583  0.31134085  1
  Ni  Ni149  1  0.31156749  0.73433436  0.43379428  1
  Ni  Ni150  1  0.43382645  0.73437391  0.31140480  1
  Ni  Ni151  1  0.31141424  0.26561045  0.43379227  1
  Ni  Ni152  1  0.43380050  0.26558541  0.31142974  1
  Ni  Ni153  1  0.56060449  0.49991435  0.80703484  1
  Ni  Ni154  1  0.80705484  0.49997032  0.56047511  1
  Ni  Ni155  1  0.80709259  0.49995053  0.43942545  1
  Ni  Ni156  1  0.43955531  0.50002789  0.80688395  1
  Ni  Ni157  1  0.56051188  0.50000011  0.19297892  1
  Ni  Ni158  1  0.19314860  0.50012410  0.56052234  1
  Ni  Ni159  1  0.43950695  0.49996548  0.19295763  1
  Ni  Ni160  1  0.19296784  0.49998966  0.43949344  1
  H  H161  1  0.33495622  0.71013071  0.72627665  1
  Pt  Pt162  1  0.49998484  0.44122917  0.56430651  1
  Pt  Pt163  1  0.56429218  0.44123101  0.50002652  1
  Pt  Pt164  1  0.56433577  0.55879581  0.49999550  1
  Pt  Pt165  1  0.49982803  0.55905273  0.56444419  1
  Pt  Pt166  1  0.50002768  0.44121638  0.43569271  1
  Pt  Pt167  1  0.43574154  0.44120425  0.49996169  1
  Pt  Pt168  1  0.43576126  0.55889981  0.50003137  1
  Pt  Pt169  1  0.50007326  0.55877869  0.43567026  1
  Pt  Pt170  1  0.56337550  0.44106334  0.62796207  1
  Pt  Pt171  1  0.62802592  0.44106881  0.56337254  1
  Pt  Pt172  1  0.56328219  0.55902164  0.62799982  1
  Pt  Pt173  1  0.62802702  0.55889725  0.56335119  1
  Pt  Pt174  1  0.62803342  0.44105897  0.43663076  1
  Pt  Pt175  1  0.43657452  0.44107124  0.62798548  1
  Pt  Pt176  1  0.62808847  0.55886963  0.43659779  1
  Pt  Pt177  1  0.43626673  0.55929661  0.62818321  1
  Pt  Pt178  1  0.56342026  0.44104371  0.37196616  1
  Pt  Pt179  1  0.37202747  0.44110270  0.56332341  1
  Pt  Pt180  1  0.37205882  0.55880028  0.56320412  1
  Pt  Pt181  1  0.56344645  0.55882338  0.37191390  1
  Pt  Pt182  1  0.43665608  0.44105229  0.37193478  1
  Pt  Pt183  1  0.37201818  0.44099395  0.43650858  1
  Pt  Pt184  1  0.37203209  0.55892520  0.43657497  1
  Pt  Pt185  1  0.43665512  0.55886228  0.37191875  1
  Pt  Pt186  1  0.56364672  0.32282334  0.49998451  1
  Pt  Pt187  1  0.50001191  0.32282732  0.56361680  1
  Pt  Pt188  1  0.43637751  0.32283859  0.49997085  1
  Pt  Pt189  1  0.50003274  0.32282238  0.43633670  1
  Pt  Pt190  1  0.56391706  0.67713572  0.49973762  1
  Pt  Pt191  1  0.49998980  0.67692234  0.56349047  1
  Pt  Pt192  1  0.43646114  0.67696369  0.50003311  1
  Pt  Pt193  1  0.50018383  0.67708187  0.43624865  1
  Pt  Pt194  1  0.69345081  0.44072745  0.49999815  1
  Pt  Pt195  1  0.50000307  0.44074660  0.69332066  1
  Pt  Pt196  1  0.69346668  0.55924150  0.50000230  1
  Pt  Pt197  1  0.50010071  0.55908336  0.69344078  1
  Pt  Pt198  1  0.30658786  0.44072931  0.49996410  1
  Pt  Pt199  1  0.50003469  0.44071480  0.30654569  1
  Pt  Pt200  1  0.30668213  0.55931886  0.49994773  1
  Pt  Pt201  1  0.50002343  0.55921179  0.30650786  1
  Pt  Pt202  1  0.62724214  0.32302180  0.56290035  1
  Pt  Pt203  1  0.56291455  0.32303219  0.62721451  1
  Pt  Pt204  1  0.43708416  0.32303820  0.62718956  1
  Pt  Pt205  1  0.62724406  0.32303044  0.43707746  1
  Pt  Pt206  1  0.62727914  0.67693496  0.56283572  1
  Pt  Pt207  1  0.56280531  0.67680499  0.62704289  1
  Pt  Pt208  1  0.43602430  0.67704227  0.62821804  1
  Pt  Pt209  1  0.62739435  0.67701578  0.43692716  1
  Pt  Pt210  1  0.37278662  0.32303891  0.56288684  1
  Pt  Pt211  1  0.56294196  0.32301673  0.37274685  1
  Pt  Pt212  1  0.43710706  0.32303113  0.37274090  1
  Pt  Pt213  1  0.37277076  0.32302931  0.43709301  1
  Pt  Pt214  1  0.56303313  0.67694803  0.37263603  1
  Pt  Pt215  1  0.37273505  0.67701849  0.56315415  1
  Pt  Pt216  1  0.43720488  0.67689612  0.37267470  1
  Pt  Pt217  1  0.37291984  0.67685666  0.43701494  1
  Pt  Pt218  1  0.62544736  0.44169100  0.69028560  1
  Pt  Pt219  1  0.69034607  0.44163950  0.62542723  1
  Pt  Pt220  1  0.69035226  0.55823869  0.62538605  1
  Pt  Pt221  1  0.62543843  0.55817335  0.69023923  1
  Pt  Pt222  1  0.62547023  0.44172976  0.30965921  1
  Pt  Pt223  1  0.30978167  0.44177582  0.62540793  1
  Pt  Pt224  1  0.62549056  0.55824548  0.30961345  1
  Pt  Pt225  1  0.30996497  0.55857123  0.62550623  1
  Pt  Pt226  1  0.69034506  0.44170026  0.37454996  1
  Pt  Pt227  1  0.37459764  0.44173145  0.69030397  1
  Pt  Pt228  1  0.69037801  0.55826852  0.37451945  1
  Pt  Pt229  1  0.37445334  0.55857614  0.69045078  1
  Pt  Pt230  1  0.30964426  0.44166581  0.37452009  1
  Pt  Pt231  1  0.37456215  0.44170646  0.30965259  1
  Pt  Pt232  1  0.37456370  0.55822278  0.30963670  1
  Pt  Pt233  1  0.30969010  0.55826893  0.37451666  1
  Pt  Pt234  1  0.69432003  0.31937805  0.49998871  1
  Pt  Pt235  1  0.49999328  0.31935592  0.69428787  1
  Pt  Pt236  1  0.69439262  0.68066684  0.49995087  1
  Pt  Pt237  1  0.50000146  0.68044387  0.69423105  1
  Pt  Pt238  1  0.50001886  0.31933144  0.30566423  1
  Pt  Pt239  1  0.30565928  0.31936385  0.50000381  1
  Pt  Pt240  1  0.50003219  0.68065505  0.30559073  1
  Pt  Pt241  1  0.30583307  0.68058131  0.49992755  1
  Pt  Pt242  1  0.76039182  0.43268010  0.56912249  1
  Pt  Pt243  1  0.56920110  0.43257807  0.76038612  1
  Pt  Pt244  1  0.56953664  0.56733318  0.76057585  1
  Pt  Pt245  1  0.76043198  0.56725885  0.56908993  1
  Pt  Pt246  1  0.76034959  0.43273689  0.43083865  1
  Pt  Pt247  1  0.43084084  0.43271115  0.76034201  1
  Pt  Pt248  1  0.43103771  0.56733361  0.76016911  1
  Pt  Pt249  1  0.76041081  0.56718179  0.43080919  1
  Pt  Pt250  1  0.23975329  0.43280780  0.56917275  1
  Pt  Pt251  1  0.56917712  0.43269149  0.23962210  1
  Pt  Pt252  1  0.23992442  0.56736890  0.56905128  1
  Pt  Pt253  1  0.56921425  0.56736500  0.23955943  1
  Pt  Pt254  1  0.43086021  0.43265517  0.23959140  1
  Pt  Pt255  1  0.23957239  0.43266355  0.43080203  1
  Pt  Pt256  1  0.23978791  0.56712881  0.43088614  1
  Pt  Pt257  1  0.43081399  0.56731445  0.23951990  1
  Pt  Pt258  1  0.69158012  0.32096225  0.63061822  1
  Pt  Pt259  1  0.63065364  0.32096025  0.69153282  1
  Pt  Pt260  1  0.63061738  0.67890062  0.69134809  1
  Pt  Pt261  1  0.69158188  0.67900191  0.63052652  1
  Pt  Pt262  1  0.30844708  0.32105035  0.63061854  1
  Pt  Pt263  1  0.63065398  0.32096629  0.30843727  1
  Pt  Pt264  1  0.69156169  0.32097963  0.36935934  1
  Pt  Pt265  1  0.36936987  0.32101698  0.69152038  1
  Pt  Pt266  1  0.63070868  0.67900910  0.30837303  1
  Pt  Pt267  1  0.30827665  0.67927675  0.63070905  1
  Pt  Pt268  1  0.69154322  0.67897564  0.36936302  1
  Pt  Pt269  1  0.36645760  0.68294319  0.69501530  1
  Pt  Pt270  1  0.30843347  0.32100734  0.36934913  1
  Pt  Pt271  1  0.36935067  0.32100894  0.30842926  1
  Pt  Pt272  1  0.36935686  0.67898227  0.30839125  1
  Pt  Pt273  1  0.30849020  0.67894709  0.36932767  1
  Pt  Pt274  1  0.56391934  0.20561088  0.49996945  1
  Pt  Pt275  1  0.50000807  0.20562567  0.56389686  1
  Pt  Pt276  1  0.43608759  0.20564226  0.49999977  1
  Pt  Pt277  1  0.49998995  0.20562816  0.43604961  1
  Pt  Pt278  1  0.49987669  0.79419361  0.56377408  1
  Pt  Pt279  1  0.56394029  0.79423013  0.49989891  1
  Pt  Pt280  1  0.43620017  0.79419972  0.49991035  1
  Pt  Pt281  1  0.50009224  0.79426244  0.43597722  1
  Pt  Pt282  1  0.75197122  0.32681595  0.56738132  1
  Pt  Pt283  1  0.56743119  0.32693011  0.75190648  1
  Pt  Pt284  1  0.75195125  0.32685588  0.43257365  1
  Pt  Pt285  1  0.43257840  0.32690502  0.75193966  1
  Pt  Pt286  1  0.56750239  0.67299671  0.75185805  1
  Pt  Pt287  1  0.75199239  0.67311667  0.56733422  1
  Pt  Pt288  1  0.75200447  0.67314502  0.43254940  1
  Pt  Pt289  1  0.43303909  0.67284259  0.75189184  1
  Pt  Pt290  1  0.24802285  0.32694510  0.56743913  1
  Pt  Pt291  1  0.56743064  0.32683779  0.24803937  1
  Pt  Pt292  1  0.43259352  0.32690273  0.24805383  1
  Pt  Pt293  1  0.24803151  0.32689588  0.43256723  1
  Pt  Pt294  1  0.56745067  0.67304962  0.24802447  1
  Pt  Pt295  1  0.24825571  0.67293194  0.56733404  1
  Pt  Pt296  1  0.24809522  0.67317002  0.43253340  1
  Pt  Pt297  1  0.43257538  0.67306385  0.24803158  1
  Pt  Pt298  1  0.68838277  0.44341916  0.75188080  1
  Pt  Pt299  1  0.75200640  0.44335223  0.68827387  1
  Pt  Pt300  1  0.75200617  0.55653718  0.68824856  1
  Pt  Pt301  1  0.68830534  0.55645758  0.75185104  1
  Pt  Pt302  1  0.81319099  0.44193167  0.49995789  1
  Pt  Pt303  1  0.50000309  0.44191211  0.81314158  1
  Pt  Pt304  1  0.75198219  0.44331473  0.31165894  1
  Pt  Pt305  1  0.31171845  0.44346072  0.75193368  1
  Pt  Pt306  1  0.81324057  0.55802592  0.49993470  1
  Pt  Pt307  1  0.50013249  0.55794828  0.81303780  1
  Pt  Pt308  1  0.75199282  0.55663931  0.31167759  1
  Pt  Pt309  1  0.31180027  0.55670754  0.75207632  1
  Pt  Pt310  1  0.50002804  0.44191268  0.18680275  1
  Pt  Pt311  1  0.24814127  0.44363824  0.68830483  1
  Pt  Pt312  1  0.18692710  0.44202229  0.50006001  1
  Pt  Pt313  1  0.68833465  0.44347119  0.24802659  1
  Pt  Pt314  1  0.68838412  0.55649151  0.24803921  1
  Pt  Pt315  1  0.18688219  0.55811703  0.49998962  1
  Pt  Pt316  1  0.24826112  0.55647733  0.68842046  1
  Pt  Pt317  1  0.50002708  0.55801799  0.18682090  1
  Pt  Pt318  1  0.31168339  0.44346797  0.24803165  1
  Pt  Pt319  1  0.24800890  0.44343282  0.31164384  1
  Pt  Pt320  1  0.24803032  0.55651892  0.31165022  1
  Pt  Pt321  1  0.31167744  0.55649976  0.24802681  1
  Pt  Pt322  1  0.56393688  0.20887051  0.62704495  1
  Pt  Pt323  1  0.62704909  0.20887435  0.56391512  1
  Pt  Pt324  1  0.62710536  0.20886418  0.43607150  1
  Pt  Pt325  1  0.43606206  0.20890431  0.62703486  1
  Pt  Pt326  1  0.37293487  0.20890783  0.56392322  1
  Pt  Pt327  1  0.56399927  0.20885767  0.37296939  1
  Pt  Pt328  1  0.56361139  0.79092881  0.62690344  1
  Pt  Pt329  1  0.62687723  0.79100673  0.56396662  1
  Pt  Pt330  1  0.43605804  0.20890463  0.37293071  1
  Pt  Pt331  1  0.37294817  0.20895827  0.43607193  1
  Pt  Pt332  1  0.43615004  0.79108409  0.62710939  1
  Pt  Pt333  1  0.62709284  0.79116643  0.43594101  1
  Pt  Pt334  1  0.37333719  0.79102822  0.56368048  1
  Pt  Pt335  1  0.56401722  0.79114595  0.37278549  1
  Pt  Pt336  1  0.43609891  0.79106163  0.37288182  1
  Pt  Pt337  1  0.37308621  0.79099737  0.43602954  1
