# generated using pymatgen
data_Ni161HPt176
_symmetry_space_group_name_H-M   'P 1'
_cell_length_a   30.00000000
_cell_length_b   30.00000000
_cell_length_c   30.00000000
_cell_angle_alpha   90.00000000
_cell_angle_beta   90.00000000
_cell_angle_gamma   90.00000000
_symmetry_Int_Tables_number   1
_chemical_formula_structural   Ni161HPt176
_chemical_formula_sum   'Ni161 H1 Pt176'
_cell_volume   27000.00000000
_cell_formula_units_Z   1
loop_
 _symmetry_equiv_pos_site_id
 _symmetry_equiv_pos_as_xyz
  1  'x, y, z'
loop_
 _atom_site_type_symbol
 _atom_site_label
 _atom_site_symmetry_multiplicity
 _atom_site_fract_x
 _atom_site_fract_y
 _atom_site_fract_z
 _atom_site_occupancy
  Ni  Ni0  1  0.50000353  0.50001481  0.50000000  1
  Ni  Ni1  1  0.56391482  0.50003796  0.56390839  1
  Ni  Ni2  1  0.56391482  0.50003796  0.43609161  1
  Ni  Ni3  1  0.43606383  0.50000729  0.56391836  1
  Ni  Ni4  1  0.43606383  0.50000729  0.43608164  1
  Ni  Ni5  1  0.49998117  0.38315768  0.50000000  1
  Ni  Ni6  1  0.49971968  0.61705529  0.50000000  1
  Ni  Ni7  1  0.37107039  0.50001552  0.50000000  1
  Ni  Ni8  1  0.49997444  0.50001628  0.37112996  1
  Ni  Ni9  1  0.62887703  0.50011858  0.50000000  1
  Ni  Ni10  1  0.49997444  0.50001628  0.62887004  1
  Ni  Ni11  1  0.56384159  0.38186911  0.56382855  1
  Ni  Ni12  1  0.56369917  0.61825339  0.56383361  1
  Ni  Ni13  1  0.56384159  0.38186911  0.43617145  1
  Ni  Ni14  1  0.43615997  0.38186628  0.56382205  1
  Ni  Ni15  1  0.56369917  0.61825339  0.43616639  1
  Ni  Ni16  1  0.43618029  0.61830426  0.56372461  1
  Ni  Ni17  1  0.43615997  0.38186628  0.43617795  1
  Ni  Ni18  1  0.43618029  0.61830426  0.43627539  1
  Ni  Ni19  1  0.62822906  0.38205541  0.50000000  1
  Ni  Ni20  1  0.37172489  0.38206021  0.50000000  1
  Ni  Ni21  1  0.50000617  0.38203074  0.37175941  1
  Ni  Ni22  1  0.37193996  0.61813706  0.50000000  1
  Ni  Ni23  1  0.49999602  0.61806108  0.37183325  1
  Ni  Ni24  1  0.62846556  0.61788261  0.50000000  1
  Ni  Ni25  1  0.49999602  0.61806108  0.62816675  1
  Ni  Ni26  1  0.50000617  0.38203074  0.62824059  1
  Ni  Ni27  1  0.37348907  0.50003601  0.37350078  1
  Ni  Ni28  1  0.62646604  0.50002597  0.37348687  1
  Ni  Ni29  1  0.62646604  0.50002597  0.62651313  1
  Ni  Ni30  1  0.37348907  0.50003601  0.62649922  1
  Ni  Ni31  1  0.69544149  0.50000585  0.56231045  1
  Ni  Ni32  1  0.56233699  0.49999845  0.69536263  1
  Ni  Ni33  1  0.43770653  0.49999930  0.69540706  1
  Ni  Ni34  1  0.69544149  0.50000585  0.43768955  1
  Ni  Ni35  1  0.30452970  0.50005581  0.56228928  1
  Ni  Ni36  1  0.56233699  0.49999845  0.30463737  1
  Ni  Ni37  1  0.30452970  0.50005581  0.43771072  1
  Ni  Ni38  1  0.43770653  0.49999930  0.30459294  1
  Ni  Ni39  1  0.62756279  0.38117272  0.37247520  1
  Ni  Ni40  1  0.37243635  0.38119025  0.37246379  1
  Ni  Ni41  1  0.62756279  0.38117272  0.62752480  1
  Ni  Ni42  1  0.37242733  0.61883988  0.37249245  1
  Ni  Ni43  1  0.37242733  0.61883988  0.62750755  1
  Ni  Ni44  1  0.62748609  0.61884088  0.37245597  1
  Ni  Ni45  1  0.62748609  0.61884088  0.62754403  1
  Ni  Ni46  1  0.37243635  0.38119025  0.62753621  1
  Ni  Ni47  1  0.68946387  0.38183121  0.56293828  1
  Ni  Ni48  1  0.56297528  0.38181060  0.68948653  1
  Ni  Ni49  1  0.68951502  0.61813550  0.56298577  1
  Ni  Ni50  1  0.56293559  0.61817864  0.68944720  1
  Ni  Ni51  1  0.68946387  0.38183121  0.43706172  1
  Ni  Ni52  1  0.68951502  0.61813550  0.43701423  1
  Ni  Ni53  1  0.43704291  0.61809958  0.68959252  1
  Ni  Ni54  1  0.43705180  0.38183416  0.68948549  1
  Ni  Ni55  1  0.31051578  0.38185014  0.56293352  1
  Ni  Ni56  1  0.56297528  0.38181060  0.31051347  1
  Ni  Ni57  1  0.56293559  0.61817864  0.31055280  1
  Ni  Ni58  1  0.31060239  0.61823847  0.56294551  1
  Ni  Ni59  1  0.43705180  0.38183416  0.31051451  1
  Ni  Ni60  1  0.43704291  0.61809958  0.31040748  1
  Ni  Ni61  1  0.31060239  0.61823847  0.43705449  1
  Ni  Ni62  1  0.31051578  0.38185014  0.43706648  1
  Ni  Ni63  1  0.49998996  0.26302627  0.50000000  1
  Ni  Ni64  1  0.49954485  0.73781477  0.50000000  1
  Ni  Ni65  1  0.56294199  0.26452835  0.56294991  1
  Ni  Ni66  1  0.56296663  0.73541296  0.56278709  1
  Ni  Ni67  1  0.56294199  0.26452835  0.43705009  1
  Ni  Ni68  1  0.43707006  0.26454558  0.56295027  1
  Ni  Ni69  1  0.56296663  0.73541296  0.43721291  1
  Ni  Ni70  1  0.43711652  0.73610992  0.56285259  1
  Ni  Ni71  1  0.43711652  0.73610992  0.43714741  1
  Ni  Ni72  1  0.43707006  0.26454558  0.43704973  1
  Ni  Ni73  1  0.50009886  0.50000266  0.75224474  1
  Ni  Ni74  1  0.24778857  0.50013976  0.50000000  1
  Ni  Ni75  1  0.50009886  0.50000266  0.24775526  1
  Ni  Ni76  1  0.75224249  0.50000575  0.50000000  1
  Ni  Ni77  1  0.36927831  0.73785557  0.50000000  1
  Ni  Ni78  1  0.63066891  0.26233781  0.50000000  1
  Ni  Ni79  1  0.36935424  0.26235078  0.50000000  1
  Ni  Ni80  1  0.49999469  0.26232812  0.36930397  1
  Ni  Ni81  1  0.50002824  0.73752238  0.36927670  1
  Ni  Ni82  1  0.50002824  0.73752238  0.63072330  1
  Ni  Ni83  1  0.63068224  0.73750821  0.50000000  1
  Ni  Ni84  1  0.49999469  0.26232812  0.63069603  1
  Ni  Ni85  1  0.68858513  0.49995413  0.68851606  1
  Ni  Ni86  1  0.68858513  0.49995413  0.31148394  1
  Ni  Ni87  1  0.31145161  0.49997425  0.68854338  1
  Ni  Ni88  1  0.31145161  0.49997425  0.31145662  1
  Ni  Ni89  1  0.75447526  0.37971990  0.50000000  1
  Ni  Ni90  1  0.50006172  0.62018730  0.75463456  1
  Ni  Ni91  1  0.24552276  0.62023592  0.50000000  1
  Ni  Ni92  1  0.50008850  0.37973850  0.24547862  1
  Ni  Ni93  1  0.50006172  0.62018730  0.24536544  1
  Ni  Ni94  1  0.24549879  0.37972190  0.50000000  1
  Ni  Ni95  1  0.50008850  0.37973850  0.75452138  1
  Ni  Ni96  1  0.75458794  0.62022180  0.50000000  1
  Ni  Ni97  1  0.24359706  0.50002930  0.37494994  1
  Ni  Ni98  1  0.62511800  0.49998736  0.75639565  1
  Ni  Ni99  1  0.37492182  0.49994684  0.24359185  1
  Ni  Ni100  1  0.62511800  0.49998736  0.24360435  1
  Ni  Ni101  1  0.24359706  0.50002930  0.62505006  1
  Ni  Ni102  1  0.75647193  0.49991933  0.37487437  1
  Ni  Ni103  1  0.37492182  0.49994684  0.75640815  1
  Ni  Ni104  1  0.75647193  0.49991933  0.62512563  1
  Ni  Ni105  1  0.69055973  0.38146864  0.69053817  1
  Ni  Ni106  1  0.69061878  0.61841498  0.69056538  1
  Ni  Ni107  1  0.69055973  0.38146864  0.30946183  1
  Ni  Ni108  1  0.30944157  0.38147068  0.69055149  1
  Ni  Ni109  1  0.69061878  0.61841498  0.30943462  1
  Ni  Ni110  1  0.30944071  0.61840523  0.69067521  1
  Ni  Ni111  1  0.30944157  0.38147068  0.30944851  1
  Ni  Ni112  1  0.30944071  0.61840523  0.30932479  1
  Ni  Ni113  1  0.37206156  0.73608051  0.37182921  1
  Ni  Ni114  1  0.62798146  0.26373702  0.37206049  1
  Ni  Ni115  1  0.37206119  0.26375762  0.37205530  1
  Ni  Ni116  1  0.62811400  0.73614595  0.62806433  1
  Ni  Ni117  1  0.37206156  0.73608051  0.62817079  1
  Ni  Ni118  1  0.62811400  0.73614595  0.37193567  1
  Ni  Ni119  1  0.37206119  0.26375762  0.62794470  1
  Ni  Ni120  1  0.62798146  0.26373702  0.62793951  1
  Ni  Ni121  1  0.36757107  0.61907718  0.75035855  1
  Ni  Ni122  1  0.75028895  0.38070931  0.36757163  1
  Ni  Ni123  1  0.63243471  0.38072291  0.75023977  1
  Ni  Ni124  1  0.63243471  0.38072291  0.24976023  1
  Ni  Ni125  1  0.63249487  0.61914210  0.75028770  1
  Ni  Ni126  1  0.63249487  0.61914210  0.24971230  1
  Ni  Ni127  1  0.75028895  0.38070931  0.63242837  1
  Ni  Ni128  1  0.36757107  0.61907718  0.24964145  1
  Ni  Ni129  1  0.36755602  0.38073668  0.24975374  1
  Ni  Ni130  1  0.24966241  0.61929683  0.36730231  1
  Ni  Ni131  1  0.24976401  0.38073506  0.36755661  1
  Ni  Ni132  1  0.24976401  0.38073506  0.63244339  1
  Ni  Ni133  1  0.36755602  0.38073668  0.75024626  1
  Ni  Ni134  1  0.75035195  0.61916508  0.36759252  1
  Ni  Ni135  1  0.75035195  0.61916508  0.63240748  1
  Ni  Ni136  1  0.24966241  0.61929683  0.63269769  1
  Ni  Ni137  1  0.68858788  0.26558687  0.56618119  1
  Ni  Ni138  1  0.68860804  0.73428422  0.56622714  1
  Ni  Ni139  1  0.56618940  0.26558556  0.68854351  1
  Ni  Ni140  1  0.56625247  0.73427898  0.68868867  1
  Ni  Ni141  1  0.68858788  0.26558687  0.43381881  1
  Ni  Ni142  1  0.68860804  0.73428422  0.43377286  1
  Ni  Ni143  1  0.43383538  0.26560361  0.68858431  1
  Ni  Ni144  1  0.43375202  0.73416846  0.68878542  1
  Ni  Ni145  1  0.56618940  0.26558556  0.31145649  1
  Ni  Ni146  1  0.31143530  0.26560301  0.56617970  1
  Ni  Ni147  1  0.31143497  0.73419508  0.56619830  1
  Ni  Ni148  1  0.56625247  0.73427898  0.31131133  1
  Ni  Ni149  1  0.31143497  0.73419508  0.43380170  1
  Ni  Ni150  1  0.43375202  0.73416846  0.31121458  1
  Ni  Ni151  1  0.31143530  0.26560301  0.43382030  1
  Ni  Ni152  1  0.43383538  0.26560361  0.31141569  1
  Ni  Ni153  1  0.56068830  0.49997797  0.80707067  1
  Ni  Ni154  1  0.80702750  0.49993259  0.56053674  1
  Ni  Ni155  1  0.80702750  0.49993259  0.43946326  1
  Ni  Ni156  1  0.43941748  0.49996856  0.80699368  1
  Ni  Ni157  1  0.56068830  0.49997797  0.19292933  1
  Ni  Ni158  1  0.19312928  0.50007674  0.56044858  1
  Ni  Ni159  1  0.43941748  0.49996856  0.19300632  1
  Ni  Ni160  1  0.19312928  0.50007674  0.43955142  1
  H  H161  1  0.43304276  0.85014193  0.50000000  1
  Pt  Pt162  1  0.49999329  0.44127302  0.56429446  1
  Pt  Pt163  1  0.56429341  0.44126771  0.50000000  1
  Pt  Pt164  1  0.56427224  0.55885940  0.50000000  1
  Pt  Pt165  1  0.49994679  0.55878303  0.56426104  1
  Pt  Pt166  1  0.49999329  0.44127302  0.43570554  1
  Pt  Pt167  1  0.43566426  0.44129613  0.50000000  1
  Pt  Pt168  1  0.43566726  0.55876478  0.50000000  1
  Pt  Pt169  1  0.49994679  0.55878303  0.43573896  1
  Pt  Pt170  1  0.56335668  0.44108038  0.62800699  1
  Pt  Pt171  1  0.62800771  0.44114440  0.56336311  1
  Pt  Pt172  1  0.56329899  0.55897827  0.62796583  1
  Pt  Pt173  1  0.62798309  0.55896280  0.56341033  1
  Pt  Pt174  1  0.62800771  0.44114440  0.43663689  1
  Pt  Pt175  1  0.43662399  0.44107748  0.62801519  1
  Pt  Pt176  1  0.62798309  0.55896280  0.43658967  1
  Pt  Pt177  1  0.43662966  0.55895187  0.62800601  1
  Pt  Pt178  1  0.56335668  0.44108038  0.37199301  1
  Pt  Pt179  1  0.37195723  0.44111701  0.56339161  1
  Pt  Pt180  1  0.37201145  0.55896071  0.56337325  1
  Pt  Pt181  1  0.56329899  0.55897827  0.37203417  1
  Pt  Pt182  1  0.43662399  0.44107748  0.37198481  1
  Pt  Pt183  1  0.37195723  0.44111701  0.43660839  1
  Pt  Pt184  1  0.37201145  0.55896071  0.43662675  1
  Pt  Pt185  1  0.43662966  0.55895187  0.37199399  1
  Pt  Pt186  1  0.56363359  0.32285608  0.50000000  1
  Pt  Pt187  1  0.50000509  0.32289480  0.56362467  1
  Pt  Pt188  1  0.43637165  0.32289316  0.50000000  1
  Pt  Pt189  1  0.50000509  0.32289480  0.43637533  1
  Pt  Pt190  1  0.56363721  0.67697159  0.50000000  1
  Pt  Pt191  1  0.49979892  0.67750073  0.56349515  1
  Pt  Pt192  1  0.43633950  0.67797461  0.50000000  1
  Pt  Pt193  1  0.49979892  0.67750073  0.43650485  1
  Pt  Pt194  1  0.69340906  0.44079177  0.50000000  1
  Pt  Pt195  1  0.49999750  0.44077216  0.69342951  1
  Pt  Pt196  1  0.69344760  0.55925466  0.50000000  1
  Pt  Pt197  1  0.50002853  0.55920756  0.69341907  1
  Pt  Pt198  1  0.30653495  0.44080827  0.50000000  1
  Pt  Pt199  1  0.49999750  0.44077216  0.30657049  1
  Pt  Pt200  1  0.30661909  0.55927838  0.50000000  1
  Pt  Pt201  1  0.50002853  0.55920756  0.30658093  1
  Pt  Pt202  1  0.62725812  0.32301222  0.56290654  1
  Pt  Pt203  1  0.56290901  0.32302739  0.62723681  1
  Pt  Pt204  1  0.43709774  0.32302730  0.62724890  1
  Pt  Pt205  1  0.62725812  0.32301222  0.43709346  1
  Pt  Pt206  1  0.62724193  0.67690909  0.56296133  1
  Pt  Pt207  1  0.56285673  0.67704602  0.62718660  1
  Pt  Pt208  1  0.43704367  0.67681221  0.62739596  1
  Pt  Pt209  1  0.62724193  0.67690909  0.43703867  1
  Pt  Pt210  1  0.37275359  0.32303657  0.56291682  1
  Pt  Pt211  1  0.56290901  0.32302739  0.37276319  1
  Pt  Pt212  1  0.43709774  0.32302730  0.37275110  1
  Pt  Pt213  1  0.37275359  0.32303657  0.43708318  1
  Pt  Pt214  1  0.56285673  0.67704602  0.37281340  1
  Pt  Pt215  1  0.37290973  0.67713782  0.56289497  1
  Pt  Pt216  1  0.43704367  0.67681221  0.37260404  1
  Pt  Pt217  1  0.37290973  0.67713782  0.43710503  1
  Pt  Pt218  1  0.62545512  0.44171134  0.69031632  1
  Pt  Pt219  1  0.69035218  0.44171268  0.62542483  1
  Pt  Pt220  1  0.69035811  0.55824735  0.62543850  1
  Pt  Pt221  1  0.62543385  0.55828502  0.69030029  1
  Pt  Pt222  1  0.62545512  0.44171134  0.30968368  1
  Pt  Pt223  1  0.30963131  0.44175374  0.62543817  1
  Pt  Pt224  1  0.62543385  0.55828502  0.30969971  1
  Pt  Pt225  1  0.30964730  0.55831204  0.62543972  1
  Pt  Pt226  1  0.69035218  0.44171268  0.37457517  1
  Pt  Pt227  1  0.37455664  0.44170868  0.69033201  1
  Pt  Pt228  1  0.69035811  0.55824735  0.37456150  1
  Pt  Pt229  1  0.37454102  0.55824078  0.69036665  1
  Pt  Pt230  1  0.30963131  0.44175374  0.37456183  1
  Pt  Pt231  1  0.37455664  0.44170868  0.30966799  1
  Pt  Pt232  1  0.37454102  0.55824078  0.30963335  1
  Pt  Pt233  1  0.30964730  0.55831204  0.37456028  1
  Pt  Pt234  1  0.69432030  0.31937226  0.50000000  1
  Pt  Pt235  1  0.50000166  0.31937420  0.69433784  1
  Pt  Pt236  1  0.69436455  0.68056434  0.50000000  1
  Pt  Pt237  1  0.50004320  0.68053426  0.69444136  1
  Pt  Pt238  1  0.50000166  0.31937420  0.30566216  1
  Pt  Pt239  1  0.30568107  0.31938425  0.50000000  1
  Pt  Pt240  1  0.50004320  0.68053426  0.30555864  1
  Pt  Pt241  1  0.30555962  0.68039624  0.50000000  1
  Pt  Pt242  1  0.76036710  0.43263398  0.56918054  1
  Pt  Pt243  1  0.56920881  0.43268629  0.76033917  1
  Pt  Pt244  1  0.56920673  0.56728275  0.76039004  1
  Pt  Pt245  1  0.76039157  0.56722048  0.56914263  1
  Pt  Pt246  1  0.76036710  0.43263398  0.43081946  1
  Pt  Pt247  1  0.43083722  0.43260950  0.76038834  1
  Pt  Pt248  1  0.43095090  0.56720365  0.76028710  1
  Pt  Pt249  1  0.76039157  0.56722048  0.43085737  1
  Pt  Pt250  1  0.23960261  0.43265372  0.56917645  1
  Pt  Pt251  1  0.56920881  0.43268629  0.23966083  1
  Pt  Pt252  1  0.23947183  0.56757469  0.56936822  1
  Pt  Pt253  1  0.56920673  0.56728275  0.23960996  1
  Pt  Pt254  1  0.43083722  0.43260950  0.23961166  1
  Pt  Pt255  1  0.23960261  0.43265372  0.43082355  1
  Pt  Pt256  1  0.23947183  0.56757469  0.43063178  1
  Pt  Pt257  1  0.43095090  0.56720365  0.23971290  1
  Pt  Pt258  1  0.69156324  0.32102401  0.63060494  1
  Pt  Pt259  1  0.63063824  0.32102000  0.69153042  1
  Pt  Pt260  1  0.63066409  0.67882082  0.69158111  1
  Pt  Pt261  1  0.69162193  0.67885110  0.63068054  1
  Pt  Pt262  1  0.30846638  0.32103411  0.63063560  1
  Pt  Pt263  1  0.63063824  0.32102000  0.30846958  1
  Pt  Pt264  1  0.69156324  0.32102401  0.36939506  1
  Pt  Pt265  1  0.36940515  0.32104181  0.69154971  1
  Pt  Pt266  1  0.63066409  0.67882082  0.30841889  1
  Pt  Pt267  1  0.30847330  0.67884014  0.63065586  1
  Pt  Pt268  1  0.69162193  0.67885110  0.36931946  1
  Pt  Pt269  1  0.36925421  0.67883717  0.69174620  1
  Pt  Pt270  1  0.30846638  0.32103411  0.36936440  1
  Pt  Pt271  1  0.36940515  0.32104181  0.30845029  1
  Pt  Pt272  1  0.36925421  0.67883717  0.30825380  1
  Pt  Pt273  1  0.30847330  0.67884014  0.36934414  1
  Pt  Pt274  1  0.56390668  0.20566069  0.50000000  1
  Pt  Pt275  1  0.50000242  0.20566100  0.56393279  1
  Pt  Pt276  1  0.43609918  0.20569458  0.50000000  1
  Pt  Pt277  1  0.50000242  0.20566100  0.43606721  1
  Pt  Pt278  1  0.50018948  0.79444364  0.56417009  1
  Pt  Pt279  1  0.56420259  0.79428706  0.50000000  1
  Pt  Pt280  1  0.43601328  0.79798752  0.50000000  1
  Pt  Pt281  1  0.50018948  0.79444364  0.43582991  1
  Pt  Pt282  1  0.75197887  0.32689509  0.56741547  1
  Pt  Pt283  1  0.56744931  0.32684936  0.75196962  1
  Pt  Pt284  1  0.75197887  0.32689509  0.43258453  1
  Pt  Pt285  1  0.43259577  0.32696440  0.75200603  1
  Pt  Pt286  1  0.56749705  0.67296857  0.75207070  1
  Pt  Pt287  1  0.75201425  0.67299973  0.56743704  1
  Pt  Pt288  1  0.75201425  0.67299973  0.43256296  1
  Pt  Pt289  1  0.43257726  0.67289440  0.75208706  1
  Pt  Pt290  1  0.24803243  0.32692470  0.56744221  1
  Pt  Pt291  1  0.56744931  0.32684936  0.24803038  1
  Pt  Pt292  1  0.43259577  0.32696440  0.24799397  1
  Pt  Pt293  1  0.24803243  0.32692470  0.43255779  1
  Pt  Pt294  1  0.56749705  0.67296857  0.24792930  1
  Pt  Pt295  1  0.24793787  0.67289527  0.56755103  1
  Pt  Pt296  1  0.24793787  0.67289527  0.43244897  1
  Pt  Pt297  1  0.43257726  0.67289440  0.24791294  1
  Pt  Pt298  1  0.68833687  0.44351946  0.75194145  1
  Pt  Pt299  1  0.75200585  0.44345327  0.68832802  1
  Pt  Pt300  1  0.75204293  0.55640471  0.68827746  1
  Pt  Pt301  1  0.68838552  0.55636722  0.75193229  1
  Pt  Pt302  1  0.81312399  0.44193238  0.50000000  1
  Pt  Pt303  1  0.50004952  0.44208374  0.81311426  1
  Pt  Pt304  1  0.75200585  0.44345327  0.31167198  1
  Pt  Pt305  1  0.31168302  0.44347349  0.75195640  1
  Pt  Pt306  1  0.81320319  0.55795190  0.50000000  1
  Pt  Pt307  1  0.50003963  0.55786229  0.81320915  1
  Pt  Pt308  1  0.75204293  0.55640471  0.31172254  1
  Pt  Pt309  1  0.31165980  0.55632205  0.75202543  1
  Pt  Pt310  1  0.50004952  0.44208374  0.18688574  1
  Pt  Pt311  1  0.24802941  0.44356535  0.68830661  1
  Pt  Pt312  1  0.18689035  0.44202623  0.50000000  1
  Pt  Pt313  1  0.68833687  0.44351946  0.24805855  1
  Pt  Pt314  1  0.68838552  0.55636722  0.24806771  1
  Pt  Pt315  1  0.18694802  0.55818509  0.50000000  1
  Pt  Pt316  1  0.24803743  0.55636535  0.68836507  1
  Pt  Pt317  1  0.50003963  0.55786229  0.18679085  1
  Pt  Pt318  1  0.31168302  0.44347349  0.24804360  1
  Pt  Pt319  1  0.24802941  0.44356535  0.31169339  1
  Pt  Pt320  1  0.24803743  0.55636535  0.31163493  1
  Pt  Pt321  1  0.31165980  0.55632205  0.24797457  1
  Pt  Pt322  1  0.56392524  0.20891635  0.62706903  1
  Pt  Pt323  1  0.62709743  0.20891420  0.56388238  1
  Pt  Pt324  1  0.62709743  0.20891420  0.43611762  1
  Pt  Pt325  1  0.43606063  0.20892075  0.62708551  1
  Pt  Pt326  1  0.37291524  0.20891642  0.56389633  1
  Pt  Pt327  1  0.56392524  0.20891635  0.37293097  1
  Pt  Pt328  1  0.56407952  0.79082739  0.62717030  1
  Pt  Pt329  1  0.62719132  0.79092418  0.56399594  1
  Pt  Pt330  1  0.43606063  0.20892075  0.37291449  1
  Pt  Pt331  1  0.37291524  0.20891642  0.43610367  1
  Pt  Pt332  1  0.43612267  0.79081472  0.62756993  1
  Pt  Pt333  1  0.62719132  0.79092418  0.43600406  1
  Pt  Pt334  1  0.37276949  0.79078822  0.56419489  1
  Pt  Pt335  1  0.56407952  0.79082739  0.37282970  1
  Pt  Pt336  1  0.43612267  0.79081472  0.37243007  1
  Pt  Pt337  1  0.37276949  0.79078822  0.43580511  1
