# generated using pymatgen
data_Ni161HPt176
_symmetry_space_group_name_H-M   'P 1'
_cell_length_a   30.00000000
_cell_length_b   30.00000000
_cell_length_c   30.00000000
_cell_angle_alpha   90.00000000
_cell_angle_beta   90.00000000
_cell_angle_gamma   90.00000000
_symmetry_Int_Tables_number   1
_chemical_formula_structural   Ni161HPt176
_chemical_formula_sum   'Ni161 H1 Pt176'
_cell_volume   27000.00000000
_cell_formula_units_Z   1
loop_
 _symmetry_equiv_pos_site_id
 _symmetry_equiv_pos_as_xyz
  1  'x, y, z'
loop_
 _atom_site_type_symbol
 _atom_site_label
 _atom_site_symmetry_multiplicity
 _atom_site_fract_x
 _atom_site_fract_y
 _atom_site_fract_z
 _atom_site_occupancy
  Ni  Ni0  1  0.49994820  0.49991471  0.49978003  1
  Ni  Ni1  1  0.56394285  0.49999253  0.56378278  1
  Ni  Ni2  1  0.56389546  0.49997382  0.43594351  1
  Ni  Ni3  1  0.43587542  0.49987685  0.56392296  1
  Ni  Ni4  1  0.43598081  0.49995447  0.43599511  1
  Ni  Ni5  1  0.49999580  0.38300558  0.50001939  1
  Ni  Ni6  1  0.49993443  0.61712763  0.49977977  1
  Ni  Ni7  1  0.37093360  0.49993851  0.50002580  1
  Ni  Ni8  1  0.49994208  0.49997923  0.37098380  1
  Ni  Ni9  1  0.62893208  0.49997561  0.49986453  1
  Ni  Ni10  1  0.49982229  0.50004230  0.62872675  1
  Ni  Ni11  1  0.56388332  0.38175882  0.56383098  1
  Ni  Ni12  1  0.56375617  0.61832662  0.56363150  1
  Ni  Ni13  1  0.56380292  0.38170372  0.43618922  1
  Ni  Ni14  1  0.43621041  0.38173066  0.56387541  1
  Ni  Ni15  1  0.56378852  0.61832092  0.43613921  1
  Ni  Ni16  1  0.43602697  0.61842539  0.56370585  1
  Ni  Ni17  1  0.43615837  0.38166926  0.43616875  1
  Ni  Ni18  1  0.43609918  0.61836642  0.43609777  1
  Ni  Ni19  1  0.62831128  0.38200712  0.49996883  1
  Ni  Ni20  1  0.37161922  0.38192720  0.50000728  1
  Ni  Ni21  1  0.49997794  0.38191649  0.37162638  1
  Ni  Ni22  1  0.37155055  0.61813366  0.49996316  1
  Ni  Ni23  1  0.49993175  0.61809463  0.37162117  1
  Ni  Ni24  1  0.62836670  0.61799266  0.50002400  1
  Ni  Ni25  1  0.49990097  0.61802312  0.62804532  1
  Ni  Ni26  1  0.50013219  0.38201571  0.62826287  1
  Ni  Ni27  1  0.37353292  0.49999215  0.37360871  1
  Ni  Ni28  1  0.62632711  0.49996207  0.37354019  1
  Ni  Ni29  1  0.62643943  0.50039345  0.62680232  1
  Ni  Ni30  1  0.37359212  0.49993554  0.62642841  1
  Ni  Ni31  1  0.69576028  0.49999514  0.56218213  1
  Ni  Ni32  1  0.56266495  0.50065589  0.69481474  1
  Ni  Ni33  1  0.43799754  0.50004401  0.69588567  1
  Ni  Ni34  1  0.69545671  0.49998236  0.43773575  1
  Ni  Ni35  1  0.30450134  0.49994847  0.56219894  1
  Ni  Ni36  1  0.56212994  0.49998577  0.30430496  1
  Ni  Ni37  1  0.30431717  0.49999959  0.43784406  1
  Ni  Ni38  1  0.43778071  0.50000513  0.30454560  1
  Ni  Ni39  1  0.62746570  0.38134403  0.37244306  1
  Ni  Ni40  1  0.37247758  0.38131796  0.37250603  1
  Ni  Ni41  1  0.62751381  0.38146969  0.62752843  1
  Ni  Ni42  1  0.37246313  0.61864348  0.37253522  1
  Ni  Ni43  1  0.37245436  0.61862180  0.62746291  1
  Ni  Ni44  1  0.62744332  0.61863473  0.37247062  1
  Ni  Ni45  1  0.62743568  0.61831836  0.62757040  1
  Ni  Ni46  1  0.37252714  0.38143527  0.62754680  1
  Ni  Ni47  1  0.68936326  0.38195532  0.56292898  1
  Ni  Ni48  1  0.56322058  0.38188506  0.68969195  1
  Ni  Ni49  1  0.68939906  0.61799202  0.56314678  1
  Ni  Ni50  1  0.56319380  0.61792131  0.68918552  1
  Ni  Ni51  1  0.68942516  0.38189248  0.43701251  1
  Ni  Ni52  1  0.68939114  0.61814285  0.43700116  1
  Ni  Ni53  1  0.43698095  0.61811743  0.68929746  1
  Ni  Ni54  1  0.43724981  0.38194459  0.68926241  1
  Ni  Ni55  1  0.31051846  0.38182252  0.56300107  1
  Ni  Ni56  1  0.56295826  0.38176130  0.31048312  1
  Ni  Ni57  1  0.56293977  0.61819098  0.31051861  1
  Ni  Ni58  1  0.31049647  0.61818472  0.56297541  1
  Ni  Ni59  1  0.43699820  0.38175848  0.31046557  1
  Ni  Ni60  1  0.43701641  0.61818664  0.31053262  1
  Ni  Ni61  1  0.31058580  0.61813143  0.43700948  1
  Ni  Ni62  1  0.31051643  0.38182638  0.43698083  1
  Ni  Ni63  1  0.49999270  0.26298709  0.49999220  1
  Ni  Ni64  1  0.49997184  0.73705144  0.49994281  1
  Ni  Ni65  1  0.56325651  0.26452192  0.56310144  1
  Ni  Ni66  1  0.56322349  0.73552960  0.56318590  1
  Ni  Ni67  1  0.56318567  0.26453937  0.43680474  1
  Ni  Ni68  1  0.43679774  0.26454200  0.56323788  1
  Ni  Ni69  1  0.56318364  0.73552168  0.43676464  1
  Ni  Ni70  1  0.43673384  0.73552381  0.56316253  1
  Ni  Ni71  1  0.43674221  0.73553512  0.43671948  1
  Ni  Ni72  1  0.43679634  0.26451293  0.43686611  1
  Ni  Ni73  1  0.50117926  0.50031451  0.75218062  1
  Ni  Ni74  1  0.24781567  0.49997574  0.50018536  1
  Ni  Ni75  1  0.49981011  0.50000550  0.24780615  1
  Ni  Ni76  1  0.75214530  0.49998040  0.49970122  1
  Ni  Ni77  1  0.36892116  0.73774694  0.49997533  1
  Ni  Ni78  1  0.63088713  0.26257983  0.49996284  1
  Ni  Ni79  1  0.36910299  0.26241660  0.50004039  1
  Ni  Ni80  1  0.49997453  0.26229575  0.36904644  1
  Ni  Ni81  1  0.49998308  0.73766504  0.36907268  1
  Ni  Ni82  1  0.50009065  0.73761935  0.63073329  1
  Ni  Ni83  1  0.63101539  0.73762721  0.50000009  1
  Ni  Ni84  1  0.50016339  0.26225119  0.63099639  1
  Ni  Ni85  1  0.68783364  0.50054571  0.69024843  1
  Ni  Ni86  1  0.68822265  0.49997053  0.31168479  1
  Ni  Ni87  1  0.31167525  0.49993787  0.68814157  1
  Ni  Ni88  1  0.31181735  0.50002027  0.31164770  1
  Ni  Ni89  1  0.75449546  0.37980134  0.49984341  1
  Ni  Ni90  1  0.50016162  0.62023505  0.75431863  1
  Ni  Ni91  1  0.24564024  0.62030275  0.50014960  1
  Ni  Ni92  1  0.49989217  0.37962856  0.24559196  1
  Ni  Ni93  1  0.49996151  0.62035188  0.24560190  1
  Ni  Ni94  1  0.24558774  0.37965649  0.50012238  1
  Ni  Ni95  1  0.50114560  0.37992714  0.75434423  1
  Ni  Ni96  1  0.75438918  0.62021470  0.49996377  1
  Ni  Ni97  1  0.24334590  0.50005877  0.37550782  1
  Ni  Ni98  1  0.62630223  0.50136919  0.75606899  1
  Ni  Ni99  1  0.37540491  0.49999927  0.24343622  1
  Ni  Ni100  1  0.62447676  0.49994346  0.24338376  1
  Ni  Ni101  1  0.24341202  0.49995367  0.62462970  1
  Ni  Ni102  1  0.75653355  0.50004718  0.37530989  1
  Ni  Ni103  1  0.37561295  0.49983699  0.75663452  1
  Ni  Ni104  1  0.75669228  0.50000075  0.62446519  1
  Ni  Ni105  1  0.69050327  0.38223518  0.69080887  1
  Ni  Ni106  1  0.69084123  0.61819296  0.69080532  1
  Ni  Ni107  1  0.69069953  0.38222138  0.30917906  1
  Ni  Ni108  1  0.30932264  0.38224605  0.69079367  1
  Ni  Ni109  1  0.69068646  0.61776065  0.30923513  1
  Ni  Ni110  1  0.30935618  0.61772444  0.69076043  1
  Ni  Ni111  1  0.30921461  0.38226997  0.30919488  1
  Ni  Ni112  1  0.30925020  0.61769898  0.30917739  1
  Ni  Ni113  1  0.37156481  0.73587284  0.37156830  1
  Ni  Ni114  1  0.62834916  0.26415938  0.37169443  1
  Ni  Ni115  1  0.37161699  0.26416415  0.37168002  1
  Ni  Ni116  1  0.62830830  0.73598734  0.62823261  1
  Ni  Ni117  1  0.37169522  0.73591525  0.62843489  1
  Ni  Ni118  1  0.62830509  0.73587223  0.37165729  1
  Ni  Ni119  1  0.37174862  0.26424262  0.62845360  1
  Ni  Ni120  1  0.62844694  0.26408562  0.62815099  1
  Ni  Ni121  1  0.36714757  0.61872462  0.75036734  1
  Ni  Ni122  1  0.75041516  0.38116157  0.36710801  1
  Ni  Ni123  1  0.63138682  0.38114727  0.75046866  1
  Ni  Ni124  1  0.63286604  0.38109359  0.24946620  1
  Ni  Ni125  1  0.63268103  0.61919300  0.75087519  1
  Ni  Ni126  1  0.63291014  0.61888961  0.24952537  1
  Ni  Ni127  1  0.75037215  0.38149952  0.63343535  1
  Ni  Ni128  1  0.36721432  0.61886226  0.24951559  1
  Ni  Ni129  1  0.36729230  0.38113691  0.24950927  1
  Ni  Ni130  1  0.24952509  0.61873877  0.36680788  1
  Ni  Ni131  1  0.24947790  0.38114339  0.36687032  1
  Ni  Ni132  1  0.24958637  0.38108491  0.63282102  1
  Ni  Ni133  1  0.36711673  0.38135020  0.75043050  1
  Ni  Ni134  1  0.75041228  0.61875370  0.36714446  1
  Ni  Ni135  1  0.75022820  0.61847960  0.63315082  1
  Ni  Ni136  1  0.24963267  0.61888213  0.63281338  1
  Ni  Ni137  1  0.68919015  0.26602684  0.56658810  1
  Ni  Ni138  1  0.68908981  0.73418043  0.56649821  1
  Ni  Ni139  1  0.56649729  0.26541676  0.68865302  1
  Ni  Ni140  1  0.56650487  0.73427369  0.68884295  1
  Ni  Ni141  1  0.68912248  0.26589709  0.43350785  1
  Ni  Ni142  1  0.68902920  0.73416376  0.43349429  1
  Ni  Ni143  1  0.43359896  0.26600897  0.68912330  1
  Ni  Ni144  1  0.43352097  0.73410046  0.68902535  1
  Ni  Ni145  1  0.56656846  0.26571855  0.31097242  1
  Ni  Ni146  1  0.31103493  0.26578593  0.56663623  1
  Ni  Ni147  1  0.31101352  0.73429340  0.56663083  1
  Ni  Ni148  1  0.56655082  0.73423236  0.31091486  1
  Ni  Ni149  1  0.31085869  0.73417359  0.43332856  1
  Ni  Ni150  1  0.43337016  0.73426764  0.31093442  1
  Ni  Ni151  1  0.31091504  0.26581104  0.43341058  1
  Ni  Ni152  1  0.43339490  0.26569032  0.31096873  1
  Ni  Ni153  1  0.56127028  0.50063240  0.80796980  1
  Ni  Ni154  1  0.80678585  0.49993556  0.55996888  1
  Ni  Ni155  1  0.80713201  0.50002691  0.43963738  1
  Ni  Ni156  1  0.44026946  0.49993926  0.80609016  1
  Ni  Ni157  1  0.56002898  0.49999006  0.19320622  1
  Ni  Ni158  1  0.19292567  0.50000027  0.56025943  1
  Ni  Ni159  1  0.43976520  0.50003766  0.19290795  1
  Ni  Ni160  1  0.19327282  0.50001109  0.43993179  1
  H  H161  1  0.71965468  0.58134772  0.79197427  1
  Pt  Pt162  1  0.50003278  0.44118571  0.56427486  1
  Pt  Pt163  1  0.56431337  0.44112761  0.49997968  1
  Pt  Pt164  1  0.56426928  0.55886086  0.49991470  1
  Pt  Pt165  1  0.49962680  0.55885260  0.56376755  1
  Pt  Pt166  1  0.49994717  0.44109671  0.43564933  1
  Pt  Pt167  1  0.43564814  0.44109469  0.49999210  1
  Pt  Pt168  1  0.43558965  0.55886246  0.49993456  1
  Pt  Pt169  1  0.49995858  0.55886675  0.43562869  1
  Pt  Pt170  1  0.56343665  0.44121404  0.62798635  1
  Pt  Pt171  1  0.62796987  0.44127070  0.56336742  1
  Pt  Pt172  1  0.56282227  0.55891440  0.62715987  1
  Pt  Pt173  1  0.62796691  0.55884852  0.56333303  1
  Pt  Pt174  1  0.62791914  0.44105603  0.43659248  1
  Pt  Pt175  1  0.43677198  0.44112846  0.62804659  1
  Pt  Pt176  1  0.62791238  0.55890601  0.43658352  1
  Pt  Pt177  1  0.43660538  0.55890115  0.62782407  1
  Pt  Pt178  1  0.56326235  0.44104350  0.37192412  1
  Pt  Pt179  1  0.37202491  0.44101256  0.56338513  1
  Pt  Pt180  1  0.37193965  0.55891824  0.56330207  1
  Pt  Pt181  1  0.56327192  0.55891834  0.37192450  1
  Pt  Pt182  1  0.43662440  0.44103397  0.37196117  1
  Pt  Pt183  1  0.37197326  0.44103530  0.43663738  1
  Pt  Pt184  1  0.37199958  0.55892596  0.43672583  1
  Pt  Pt185  1  0.43661771  0.55893302  0.37203492  1
  Pt  Pt186  1  0.56366396  0.32269896  0.49998741  1
  Pt  Pt187  1  0.50004096  0.32263157  0.56374020  1
  Pt  Pt188  1  0.43630904  0.32267857  0.50004488  1
  Pt  Pt189  1  0.49998653  0.32266699  0.43628886  1
  Pt  Pt190  1  0.56373367  0.67736932  0.49998612  1
  Pt  Pt191  1  0.49995832  0.67737877  0.56356405  1
  Pt  Pt192  1  0.43618494  0.67747177  0.49991321  1
  Pt  Pt193  1  0.49992925  0.67740523  0.43623991  1
  Pt  Pt194  1  0.69340286  0.44074449  0.50002456  1
  Pt  Pt195  1  0.50019765  0.44095564  0.69331657  1
  Pt  Pt196  1  0.69333471  0.55924606  0.50002811  1
  Pt  Pt197  1  0.50005986  0.55935038  0.69311587  1
  Pt  Pt198  1  0.30652923  0.44069568  0.49997868  1
  Pt  Pt199  1  0.49998673  0.44068368  0.30655979  1
  Pt  Pt200  1  0.30653002  0.55926686  0.49998907  1
  Pt  Pt201  1  0.49997308  0.55929369  0.30657190  1
  Pt  Pt202  1  0.62742019  0.32302488  0.56294924  1
  Pt  Pt203  1  0.56304773  0.32307481  0.62734139  1
  Pt  Pt204  1  0.43712129  0.32304022  0.62741771  1
  Pt  Pt205  1  0.62740310  0.32305659  0.43697936  1
  Pt  Pt206  1  0.62748960  0.67699467  0.56297310  1
  Pt  Pt207  1  0.56302181  0.67687046  0.62723311  1
  Pt  Pt208  1  0.43700844  0.67698059  0.62732836  1
  Pt  Pt209  1  0.62736736  0.67698985  0.43702267  1
  Pt  Pt210  1  0.37260707  0.32303685  0.56303565  1
  Pt  Pt211  1  0.56293820  0.32299208  0.37256015  1
  Pt  Pt212  1  0.43704035  0.32296287  0.37258714  1
  Pt  Pt213  1  0.37256131  0.32298540  0.43704296  1
  Pt  Pt214  1  0.56293355  0.67702505  0.37253445  1
  Pt  Pt215  1  0.37253482  0.67705509  0.56295604  1
  Pt  Pt216  1  0.43693662  0.67704974  0.37249244  1
  Pt  Pt217  1  0.37247814  0.67706501  0.43695618  1
  Pt  Pt218  1  0.62560459  0.44221355  0.69033495  1
  Pt  Pt219  1  0.69035539  0.44213617  0.62529965  1
  Pt  Pt220  1  0.69035664  0.55779685  0.62566400  1
  Pt  Pt221  1  0.62562751  0.55857826  0.69072461  1
  Pt  Pt222  1  0.62524370  0.44184475  0.30954332  1
  Pt  Pt223  1  0.30962975  0.44181761  0.62534987  1
  Pt  Pt224  1  0.62527328  0.55809920  0.30955477  1
  Pt  Pt225  1  0.30960959  0.55808546  0.62532474  1
  Pt  Pt226  1  0.69034921  0.44187104  0.37463217  1
  Pt  Pt227  1  0.37486325  0.44199282  0.69047624  1
  Pt  Pt228  1  0.69033282  0.55809120  0.37462623  1
  Pt  Pt229  1  0.37478062  0.55796005  0.69036284  1
  Pt  Pt230  1  0.30955288  0.44185939  0.37469764  1
  Pt  Pt231  1  0.37464619  0.44182297  0.30962428  1
  Pt  Pt232  1  0.37465719  0.55814766  0.30961311  1
  Pt  Pt233  1  0.30954494  0.55809685  0.37467156  1
  Pt  Pt234  1  0.69461836  0.31933226  0.50002143  1
  Pt  Pt235  1  0.50016286  0.31930556  0.69443042  1
  Pt  Pt236  1  0.69463545  0.68076562  0.49997012  1
  Pt  Pt237  1  0.50011269  0.68065469  0.69430468  1
  Pt  Pt238  1  0.49998317  0.31905250  0.30537907  1
  Pt  Pt239  1  0.30537282  0.31911545  0.50000158  1
  Pt  Pt240  1  0.49995618  0.68093234  0.30534977  1
  Pt  Pt241  1  0.30529977  0.68096716  0.49999774  1
  Pt  Pt242  1  0.76088627  0.43204883  0.56943640  1
  Pt  Pt243  1  0.56912648  0.43464676  0.75951933  1
  Pt  Pt244  1  0.56909828  0.56721001  0.76016318  1
  Pt  Pt245  1  0.76052074  0.56758174  0.56923017  1
  Pt  Pt246  1  0.76050048  0.43255851  0.43072642  1
  Pt  Pt247  1  0.43133725  0.43191376  0.76058115  1
  Pt  Pt248  1  0.43102037  0.56774934  0.76040332  1
  Pt  Pt249  1  0.76039958  0.56742898  0.43085955  1
  Pt  Pt250  1  0.23944440  0.43246359  0.56922133  1
  Pt  Pt251  1  0.56918482  0.43224063  0.23930216  1
  Pt  Pt252  1  0.23944500  0.56748512  0.56927805  1
  Pt  Pt253  1  0.56921689  0.56771888  0.23936920  1
  Pt  Pt254  1  0.43087774  0.43259469  0.23957668  1
  Pt  Pt255  1  0.23923758  0.43211677  0.43067667  1
  Pt  Pt256  1  0.23926413  0.56788201  0.43068499  1
  Pt  Pt257  1  0.43081309  0.56749887  0.23951601  1
  Pt  Pt258  1  0.69174334  0.32177043  0.63097938  1
  Pt  Pt259  1  0.63063532  0.32148154  0.69159544  1
  Pt  Pt260  1  0.63061713  0.67849631  0.69155165  1
  Pt  Pt261  1  0.69162701  0.67830638  0.63082593  1
  Pt  Pt262  1  0.30838800  0.32156118  0.63096770  1
  Pt  Pt263  1  0.63083981  0.32148418  0.30821099  1
  Pt  Pt264  1  0.69174514  0.32154058  0.36906808  1
  Pt  Pt265  1  0.36928597  0.32169333  0.69183696  1
  Pt  Pt266  1  0.63087073  0.67848618  0.30825031  1
  Pt  Pt267  1  0.30835056  0.67849463  0.63092672  1
  Pt  Pt268  1  0.69168504  0.67844858  0.36918590  1
  Pt  Pt269  1  0.36920712  0.67840381  0.69177052  1
  Pt  Pt270  1  0.30819494  0.32155286  0.36904254  1
  Pt  Pt271  1  0.36915085  0.32152215  0.30826842  1
  Pt  Pt272  1  0.36909671  0.67842932  0.30823587  1
  Pt  Pt273  1  0.30816652  0.67837568  0.36900975  1
  Pt  Pt274  1  0.56422558  0.20594699  0.49999328  1
  Pt  Pt275  1  0.49999277  0.20595035  0.56420525  1
  Pt  Pt276  1  0.43576611  0.20592710  0.50006010  1
  Pt  Pt277  1  0.49996101  0.20591339  0.43581016  1
  Pt  Pt278  1  0.49994587  0.79411896  0.56411170  1
  Pt  Pt279  1  0.56420684  0.79407696  0.50000213  1
  Pt  Pt280  1  0.43570176  0.79410642  0.49994739  1
  Pt  Pt281  1  0.49995405  0.79412663  0.43575877  1
  Pt  Pt282  1  0.75216334  0.32781838  0.56780822  1
  Pt  Pt283  1  0.56751999  0.32612615  0.75196910  1
  Pt  Pt284  1  0.75205534  0.32726789  0.43232354  1
  Pt  Pt285  1  0.43274327  0.32791357  0.75211142  1
  Pt  Pt286  1  0.56748191  0.67282499  0.75205969  1
  Pt  Pt287  1  0.75205454  0.67242951  0.56769697  1
  Pt  Pt288  1  0.75214518  0.67267808  0.43232979  1
  Pt  Pt289  1  0.43254212  0.67260697  0.75203369  1
  Pt  Pt290  1  0.24798397  0.32708548  0.56771159  1
  Pt  Pt291  1  0.56761140  0.32719922  0.24785531  1
  Pt  Pt292  1  0.43236824  0.32704491  0.24785926  1
  Pt  Pt293  1  0.24786695  0.32736294  0.43230851  1
  Pt  Pt294  1  0.56763454  0.67274303  0.24790173  1
  Pt  Pt295  1  0.24797597  0.67293481  0.56771253  1
  Pt  Pt296  1  0.24785557  0.67247177  0.43226783  1
  Pt  Pt297  1  0.43234756  0.67281034  0.24786874  1
  Pt  Pt298  1  0.68798672  0.44271361  0.75268697  1
  Pt  Pt299  1  0.75146587  0.44522622  0.68877699  1
  Pt  Pt300  1  0.75218768  0.55467562  0.68862633  1
  Pt  Pt301  1  0.69055136  0.55952922  0.75393679  1
  Pt  Pt302  1  0.81307740  0.44181987  0.49989855  1
  Pt  Pt303  1  0.50066623  0.44219984  0.81315343  1
  Pt  Pt304  1  0.75209028  0.44427933  0.31159871  1
  Pt  Pt305  1  0.31159551  0.44446009  0.75202714  1
  Pt  Pt306  1  0.81309497  0.55818289  0.49995417  1
  Pt  Pt307  1  0.50019559  0.55829349  0.81321954  1
  Pt  Pt308  1  0.75204270  0.55575217  0.31150805  1
  Pt  Pt309  1  0.31173630  0.55542967  0.75205851  1
  Pt  Pt310  1  0.49994262  0.44172053  0.18691209  1
  Pt  Pt311  1  0.24779952  0.44414813  0.68827816  1
  Pt  Pt312  1  0.18692849  0.44174862  0.50003551  1
  Pt  Pt313  1  0.68830634  0.44429329  0.24782579  1
  Pt  Pt314  1  0.68824951  0.55563159  0.24778951  1
  Pt  Pt315  1  0.18697165  0.55827377  0.50005208  1
  Pt  Pt316  1  0.24787769  0.55579744  0.68833051  1
  Pt  Pt317  1  0.49996423  0.55831923  0.18693921  1
  Pt  Pt318  1  0.31170963  0.44420645  0.24783011  1
  Pt  Pt319  1  0.24785068  0.44457348  0.31163503  1
  Pt  Pt320  1  0.24784480  0.55545093  0.31141191  1
  Pt  Pt321  1  0.31172380  0.55575201  0.24775372  1
  Pt  Pt322  1  0.56442644  0.20912360  0.62710955  1
  Pt  Pt323  1  0.62764779  0.20933822  0.56405065  1
  Pt  Pt324  1  0.62752671  0.20935397  0.43585808  1
  Pt  Pt325  1  0.43577350  0.20941048  0.62753200  1
  Pt  Pt326  1  0.37260585  0.20932062  0.56435620  1
  Pt  Pt327  1  0.56430539  0.20927928  0.37267012  1
  Pt  Pt328  1  0.56420576  0.79085715  0.62730786  1
  Pt  Pt329  1  0.62746736  0.79074505  0.56420373  1
  Pt  Pt330  1  0.43567017  0.20925657  0.37265743  1
  Pt  Pt331  1  0.37252392  0.20930165  0.43577809  1
  Pt  Pt332  1  0.43581786  0.79067878  0.62748423  1
  Pt  Pt333  1  0.62737605  0.79069703  0.43575200  1
  Pt  Pt334  1  0.37260851  0.79073648  0.56432546  1
  Pt  Pt335  1  0.56425182  0.79077555  0.37252682  1
  Pt  Pt336  1  0.43567722  0.79074754  0.37252552  1
  Pt  Pt337  1  0.37248279  0.79068282  0.43563678  1
