# generated using pymatgen
data_HPt112Au137
_symmetry_space_group_name_H-M   'P 1'
_cell_length_a   30.00000000
_cell_length_b   30.00000000
_cell_length_c   30.00000000
_cell_angle_alpha   90.00000000
_cell_angle_beta   90.00000000
_cell_angle_gamma   90.00000000
_symmetry_Int_Tables_number   1
_chemical_formula_structural   HPt112Au137
_chemical_formula_sum   'H1 Pt112 Au137'
_cell_volume   27000.00000000
_cell_formula_units_Z   1
loop_
 _symmetry_equiv_pos_site_id
 _symmetry_equiv_pos_as_xyz
  1  'x, y, z'
loop_
 _atom_site_type_symbol
 _atom_site_label
 _atom_site_symmetry_multiplicity
 _atom_site_fract_x
 _atom_site_fract_y
 _atom_site_fract_z
 _atom_site_occupancy
  H  H0  1  0.26103000  0.33062000  0.67092000  1
  Pt  Pt1  1  0.50006000  0.49998000  0.50007000  1
  Pt  Pt2  1  0.43283000  0.54799000  0.54776000  1
  Pt  Pt3  1  0.56729000  0.45197000  0.45237000  1
  Pt  Pt4  1  0.43269000  0.54790000  0.45225000  1
  Pt  Pt5  1  0.49992000  0.49989000  0.40456000  1
  Pt  Pt6  1  0.50020000  0.50008000  0.59558000  1
  Pt  Pt7  1  0.56743000  0.45207000  0.54788000  1
  Pt  Pt8  1  0.50065000  0.59548000  0.50015000  1
  Pt  Pt9  1  0.56788000  0.54747000  0.45246000  1
  Pt  Pt10  1  0.43224000  0.45249000  0.54768000  1
  Pt  Pt11  1  0.49947000  0.40448000  0.49998000  1
  Pt  Pt12  1  0.43210000  0.45240000  0.45217000  1
  Pt  Pt13  1  0.56802000  0.54757000  0.54797000  1
  Pt  Pt14  1  0.50051000  0.59538000  0.40465000  1
  Pt  Pt15  1  0.49961000  0.40458000  0.59548000  1
  Pt  Pt16  1  0.50079000  0.59558000  0.59566000  1
  Pt  Pt17  1  0.36487000  0.50041000  0.49986000  1
  Pt  Pt18  1  0.63525000  0.49956000  0.50027000  1
  Pt  Pt19  1  0.49933000  0.40439000  0.40447000  1
  Pt  Pt20  1  0.56774000  0.54737000  0.35696000  1
  Pt  Pt21  1  0.56684000  0.35656000  0.54780000  1
  Pt  Pt22  1  0.43238000  0.45259000  0.64318000  1
  Pt  Pt23  1  0.43328000  0.64341000  0.45233000  1
  Pt  Pt24  1  0.43297000  0.54809000  0.64326000  1
  Pt  Pt25  1  0.63466000  0.40405000  0.50019000  1
  Pt  Pt26  1  0.56715000  0.45187000  0.35687000  1
  Pt  Pt27  1  0.36545000  0.59592000  0.49994000  1
  Pt  Pt28  1  0.56670000  0.35646000  0.45229000  1
  Pt  Pt29  1  0.36501000  0.50051000  0.59536000  1
  Pt  Pt30  1  0.63511000  0.49946000  0.40477000  1
  Pt  Pt31  1  0.43341000  0.64350000  0.54784000  1
  Pt  Pt32  1  0.43255000  0.54780000  0.35675000  1
  Pt  Pt33  1  0.56757000  0.45217000  0.64338000  1
  Pt  Pt34  1  0.56847000  0.64297000  0.45255000  1
  Pt  Pt35  1  0.43165000  0.35699000  0.54758000  1
  Pt  Pt36  1  0.56816000  0.54767000  0.64348000  1
  Pt  Pt37  1  0.63539000  0.49966000  0.59578000  1
  Pt  Pt38  1  0.43196000  0.45230000  0.35666000  1
  Pt  Pt39  1  0.36473000  0.50031000  0.40435000  1
  Pt  Pt40  1  0.36427000  0.40491000  0.49978000  1
  Pt  Pt41  1  0.56861000  0.64307000  0.54805000  1
  Pt  Pt42  1  0.43151000  0.35689000  0.45208000  1
  Pt  Pt43  1  0.63584000  0.59506000  0.50036000  1
  Pt  Pt44  1  0.63452000  0.40395000  0.40469000  1
  Pt  Pt45  1  0.36560000  0.59601000  0.59544000  1
  Pt  Pt46  1  0.50034000  0.50018000  0.69108000  1
  Pt  Pt47  1  0.63480000  0.40415000  0.59570000  1
  Pt  Pt48  1  0.49978000  0.49979000  0.30906000  1
  Pt  Pt49  1  0.36532000  0.59582000  0.40443000  1
  Pt  Pt50  1  0.36442000  0.40500000  0.59528000  1
  Pt  Pt51  1  0.49888000  0.30897000  0.49990000  1
  Pt  Pt52  1  0.63570000  0.59496000  0.40486000  1
  Pt  Pt53  1  0.50124000  0.69099000  0.50023000  1
  Pt  Pt54  1  0.63598000  0.59516000  0.59587000  1
  Pt  Pt55  1  0.36414000  0.40481000  0.40427000  1
  Pt  Pt56  1  0.56698000  0.35666000  0.64330000  1
  Pt  Pt57  1  0.50037000  0.59529000  0.30914000  1
  Pt  Pt58  1  0.49975000  0.40468000  0.69099000  1
  Pt  Pt59  1  0.43314000  0.64331000  0.35683000  1
  Pt  Pt60  1  0.49902000  0.30907000  0.59540000  1
  Pt  Pt61  1  0.43178000  0.35709000  0.64309000  1
  Pt  Pt62  1  0.56833000  0.64288000  0.35704000  1
  Pt  Pt63  1  0.50110000  0.69089000  0.40473000  1
  Pt  Pt64  1  0.56656000  0.35636000  0.35679000  1
  Pt  Pt65  1  0.70248000  0.45154000  0.45259000  1
  Pt  Pt66  1  0.29763000  0.54843000  0.54754000  1
  Pt  Pt67  1  0.43356000  0.64360000  0.64334000  1
  Pt  Pt68  1  0.70263000  0.45164000  0.54809000  1
  Pt  Pt69  1  0.50093000  0.59568000  0.69116000  1
  Pt  Pt70  1  0.49919000  0.40429000  0.30897000  1
  Pt  Pt71  1  0.29749000  0.54833000  0.45204000  1
  Pt  Pt72  1  0.29705000  0.45292000  0.54746000  1
  Pt  Pt73  1  0.49874000  0.30888000  0.40439000  1
  Pt  Pt74  1  0.70307000  0.54705000  0.45267000  1
  Pt  Pt75  1  0.50138000  0.69109000  0.59574000  1
  Pt  Pt76  1  0.29691000  0.45282000  0.45196000  1
  Pt  Pt77  1  0.43137000  0.35680000  0.35657000  1
  Pt  Pt78  1  0.56875000  0.64317000  0.64356000  1
  Pt  Pt79  1  0.70321000  0.54715000  0.54817000  1
  Pt  Pt80  1  0.36605000  0.69142000  0.50002000  1
  Pt  Pt81  1  0.63497000  0.49936000  0.30926000  1
  Pt  Pt82  1  0.36515000  0.50060000  0.69087000  1
  Pt  Pt83  1  0.63407000  0.30855000  0.50011000  1
  Pt  Pt84  1  0.36459000  0.50021000  0.30885000  1
  Pt  Pt85  1  0.63553000  0.49975000  0.69128000  1
  Pt  Pt86  1  0.63643000  0.69056000  0.50045000  1
  Pt  Pt87  1  0.36369000  0.30941000  0.49968000  1
  Pt  Pt88  1  0.63439000  0.40385000  0.30918000  1
  Pt  Pt89  1  0.29822000  0.64393000  0.54763000  1
  Pt  Pt90  1  0.70235000  0.45144000  0.35708000  1
  Pt  Pt91  1  0.36573000  0.59611000  0.69095000  1
  Pt  Pt92  1  0.36618000  0.69151000  0.59553000  1
  Pt  Pt93  1  0.70190000  0.35604000  0.45250000  1
  Pt  Pt94  1  0.29777000  0.54852000  0.64305000  1
  Pt  Pt95  1  0.63393000  0.30845000  0.40460000  1
  Pt  Pt96  1  0.56760000  0.54728000  0.26145000  1
  Pt  Pt97  1  0.43251000  0.45269000  0.73869000  1
  Pt  Pt98  1  0.36590000  0.69132000  0.40452000  1
  Pt  Pt99  1  0.63421000  0.30865000  0.59561000  1
  Pt  Pt100  1  0.43387000  0.73890000  0.45242000  1
  Pt  Pt101  1  0.63557000  0.59487000  0.30935000  1
  Pt  Pt102  1  0.36455000  0.40510000  0.69079000  1
  Pt  Pt103  1  0.56625000  0.26106000  0.54771000  1
  Pt  Pt104  1  0.43311000  0.54819000  0.73877000  1
  Pt  Pt105  1  0.56701000  0.45178000  0.26136000  1
  Pt  Pt106  1  0.29809000  0.64383000  0.45212000  1
  Pt  Pt107  1  0.70203000  0.35614000  0.54801000  1
  Pt  Pt108  1  0.29718000  0.45301000  0.64297000  1
  Pt  Pt109  1  0.43401000  0.73900000  0.54792000  1
  Pt  Pt110  1  0.70293000  0.54695000  0.35716000  1
  Pt  Pt111  1  0.56611000  0.26096000  0.45221000  1
  Pt  Pt112  1  0.43241000  0.54770000  0.26124000  1
  Au  Au113  1  0.63494000  0.40425000  0.69120000  1
  Au  Au114  1  0.36517000  0.59572000  0.30893000  1
  Au  Au115  1  0.56771000  0.45226000  0.73889000  1
  Au  Au116  1  0.63630000  0.69046000  0.40494000  1
  Au  Au117  1  0.43106000  0.26148000  0.54750000  1
  Au  Au118  1  0.56906000  0.73848000  0.45263000  1
  Au  Au119  1  0.36382000  0.30950000  0.59519000  1
  Au  Au120  1  0.43182000  0.45220000  0.26116000  1
  Au  Au121  1  0.29736000  0.54823000  0.35653000  1
  Au  Au122  1  0.56830000  0.54776000  0.73898000  1
  Au  Au123  1  0.70276000  0.45173000  0.64360000  1
  Au  Au124  1  0.43092000  0.26139000  0.45200000  1
  Au  Au125  1  0.29645000  0.35742000  0.54738000  1
  Au  Au126  1  0.70366000  0.64255000  0.45276000  1
  Au  Au127  1  0.56920000  0.73858000  0.54813000  1
  Au  Au128  1  0.29677000  0.45272000  0.35645000  1
  Au  Au129  1  0.36400000  0.40471000  0.30876000  1
  Au  Au130  1  0.63612000  0.59525000  0.69138000  1
  Au  Au131  1  0.70335000  0.54724000  0.64368000  1
  Au  Au132  1  0.63657000  0.69066000  0.59595000  1
  Au  Au133  1  0.70381000  0.64265000  0.54826000  1
  Au  Au134  1  0.29631000  0.35732000  0.45188000  1
  Au  Au135  1  0.36354000  0.30931000  0.40418000  1
  Au  Au136  1  0.49916000  0.30917000  0.69091000  1
  Au  Au137  1  0.50096000  0.69080000  0.30922000  1
  Au  Au138  1  0.77045000  0.49912000  0.50049000  1
  Au  Au139  1  0.49860000  0.30878000  0.30889000  1
  Au  Au140  1  0.50152000  0.69119000  0.69124000  1
  Au  Au141  1  0.22967000  0.50084000  0.49964000  1
  Au  Au142  1  0.29836000  0.64402000  0.64313000  1
  Au  Au143  1  0.70175000  0.35594000  0.35700000  1
  Au  Au144  1  0.56820000  0.64278000  0.26153000  1
  Au  Au145  1  0.43192000  0.35719000  0.73860000  1
  Au  Au146  1  0.43373000  0.73881000  0.35691000  1
  Au  Au147  1  0.56639000  0.26116000  0.64322000  1
  Au  Au148  1  0.56712000  0.35675000  0.73881000  1
  Au  Au149  1  0.43300000  0.64321000  0.26132000  1
  Au  Au150  1  0.43120000  0.26158000  0.64301000  1
  Au  Au151  1  0.56892000  0.73838000  0.35712000  1
  Au  Au152  1  0.56642000  0.35627000  0.26128000  1
  Au  Au153  1  0.23026000  0.59634000  0.49973000  1
  Au  Au154  1  0.43369000  0.64370000  0.73885000  1
  Au  Au155  1  0.76986000  0.40363000  0.50040000  1
  Au  Au156  1  0.43414000  0.73910000  0.64343000  1
  Au  Au157  1  0.77031000  0.49903000  0.40498000  1
  Au  Au158  1  0.22981000  0.50094000  0.59515000  1
  Au  Au159  1  0.56597000  0.26087000  0.35670000  1
  Au  Au160  1  0.49964000  0.49969000  0.21355000  1
  Au  Au161  1  0.29794000  0.64373000  0.35662000  1
  Au  Au162  1  0.50048000  0.50027000  0.78659000  1
  Au  Au163  1  0.70217000  0.35623000  0.64351000  1
  Au  Au164  1  0.70353000  0.64245000  0.35725000  1
  Au  Au165  1  0.50183000  0.78649000  0.50032000  1
  Au  Au166  1  0.29659000  0.35751000  0.64289000  1
  Au  Au167  1  0.49829000  0.21347000  0.49981000  1
  Au  Au168  1  0.56889000  0.64327000  0.73906000  1
  Au  Au169  1  0.43123000  0.35670000  0.26107000  1
  Au  Au170  1  0.77059000  0.49922000  0.59599000  1
  Au  Au171  1  0.22953000  0.50074000  0.40414000  1
  Au  Au172  1  0.77103000  0.59463000  0.50057000  1
  Au  Au173  1  0.43078000  0.26129000  0.35649000  1
  Au  Au174  1  0.56934000  0.73868000  0.64364000  1
  Au  Au175  1  0.22909000  0.40533000  0.49956000  1
  Au  Au176  1  0.29618000  0.35722000  0.35637000  1
  Au  Au177  1  0.70394000  0.64274000  0.64377000  1
  Au  Au178  1  0.36633000  0.69161000  0.69103000  1
  Au  Au179  1  0.23040000  0.59644000  0.59523000  1
  Au  Au180  1  0.76972000  0.40353000  0.40490000  1
  Au  Au181  1  0.63379000  0.30835000  0.30910000  1
  Au  Au182  1  0.50024000  0.59519000  0.21363000  1
  Au  Au183  1  0.36577000  0.69122000  0.30901000  1
  Au  Au184  1  0.49988000  0.40477000  0.78650000  1
  Au  Au185  1  0.63435000  0.30874000  0.69112000  1
  Au  Au186  1  0.63616000  0.69037000  0.30943000  1
  Au  Au187  1  0.50169000  0.78640000  0.40481000  1
  Au  Au188  1  0.36396000  0.30960000  0.69070000  1
  Au  Au189  1  0.49843000  0.21357000  0.59532000  1
  Au  Au190  1  0.23012000  0.59624000  0.40422000  1
  Au  Au191  1  0.50107000  0.59578000  0.78667000  1
  Au  Au192  1  0.49905000  0.40419000  0.21346000  1
  Au  Au193  1  0.76999000  0.40372000  0.59591000  1
  Au  Au194  1  0.50197000  0.78659000  0.59582000  1
  Au  Au195  1  0.77090000  0.59454000  0.40506000  1
  Au  Au196  1  0.22922000  0.40543000  0.59507000  1
  Au  Au197  1  0.49815000  0.21338000  0.40431000  1
  Au  Au198  1  0.63671000  0.69075000  0.69146000  1
  Au  Au199  1  0.77117000  0.59473000  0.59607000  1
  Au  Au200  1  0.22894000  0.40523000  0.40406000  1
  Au  Au201  1  0.36341000  0.30921000  0.30867000  1
  Au  Au202  1  0.70221000  0.45135000  0.26157000  1
  Au  Au203  1  0.70131000  0.26053000  0.45242000  1
  Au  Au204  1  0.29791000  0.54862000  0.73856000  1
  Au  Au205  1  0.29881000  0.73944000  0.54771000  1
  Au  Au206  1  0.36529000  0.50070000  0.78637000  1
  Au  Au207  1  0.70145000  0.26063000  0.54793000  1
  Au  Au208  1  0.63483000  0.49927000  0.21376000  1
  Au  Au209  1  0.29867000  0.73934000  0.45220000  1
  Au  Au210  1  0.29733000  0.45311000  0.73847000  1
  Au  Au211  1  0.63349000  0.21304000  0.50003000  1
  Au  Au212  1  0.70279000  0.54685000  0.26166000  1
  Au  Au213  1  0.36663000  0.78693000  0.50010000  1
  Au  Au214  1  0.70290000  0.45183000  0.73910000  1
  Au  Au215  1  0.63567000  0.49985000  0.78679000  1
  Au  Au216  1  0.36445000  0.50011000  0.21334000  1
  Au  Au217  1  0.29721000  0.54813000  0.26103000  1
  Au  Au218  1  0.36310000  0.21390000  0.49960000  1
  Au  Au219  1  0.29586000  0.26192000  0.54729000  1
  Au  Au220  1  0.70426000  0.73805000  0.45284000  1
  Au  Au221  1  0.63702000  0.78607000  0.50053000  1
  Au  Au222  1  0.29663000  0.45262000  0.26095000  1
  Au  Au223  1  0.70349000  0.54734000  0.73918000  1
  Au  Au224  1  0.29572000  0.26182000  0.45178000  1
  Au  Au225  1  0.70439000  0.73815000  0.54835000  1
  Au  Au226  1  0.36469000  0.40520000  0.78629000  1
  Au  Au227  1  0.63363000  0.21314000  0.59553000  1
  Au  Au228  1  0.63542000  0.59477000  0.21384000  1
  Au  Au229  1  0.36649000  0.78683000  0.40460000  1
  Au  Au230  1  0.36587000  0.59621000  0.78646000  1
  Au  Au231  1  0.76927000  0.30812000  0.50032000  1
  Au  Au232  1  0.63425000  0.40376000  0.21367000  1
  Au  Au233  1  0.23085000  0.69185000  0.49981000  1
  Au  Au234  1  0.63335000  0.21294000  0.40452000  1
  Au  Au235  1  0.22995000  0.50103000  0.69066000  1
  Au  Au236  1  0.77017000  0.49893000  0.30947000  1
  Au  Au237  1  0.36677000  0.78702000  0.59561000  1
  Au  Au238  1  0.63508000  0.40434000  0.78671000  1
  Au  Au239  1  0.36504000  0.59562000  0.21342000  1
  Au  Au240  1  0.36324000  0.21399000  0.59511000  1
  Au  Au241  1  0.63688000  0.78597000  0.40502000  1
  Au  Au242  1  0.63626000  0.59535000  0.78688000  1
  Au  Au243  1  0.77072000  0.49932000  0.69150000  1
  Au  Au244  1  0.36386000  0.40461000  0.21326000  1
  Au  Au245  1  0.22939000  0.50065000  0.30863000  1
  Au  Au246  1  0.36296000  0.21380000  0.40410000  1
  Au  Au247  1  0.22849000  0.30983000  0.49948000  1
  Au  Au248  1  0.77163000  0.69014000  0.50066000  1
  Au  Au249  1  0.63716000  0.78617000  0.59603000  1
