# generated using pymatgen
data_Ni285HPt84
_symmetry_space_group_name_H-M   'P 1'
_cell_length_a   30.00000000
_cell_length_b   30.00000000
_cell_length_c   30.00000000
_cell_angle_alpha   90.00000000
_cell_angle_beta   90.00000000
_cell_angle_gamma   90.00000000
_symmetry_Int_Tables_number   1
_chemical_formula_structural   Ni285HPt84
_chemical_formula_sum   'Ni285 H1 Pt84'
_cell_volume   27000.00000000
_cell_formula_units_Z   1
loop_
 _symmetry_equiv_pos_site_id
 _symmetry_equiv_pos_as_xyz
  1  'x, y, z'
loop_
 _atom_site_type_symbol
 _atom_site_label
 _atom_site_symmetry_multiplicity
 _atom_site_fract_x
 _atom_site_fract_y
 _atom_site_fract_z
 _atom_site_occupancy
  Ni  Ni0  1  0.49997622  0.50001696  0.49995808  1
  Ni  Ni1  1  0.49999832  0.56066460  0.56083827  1
  Ni  Ni2  1  0.56069550  0.50002818  0.56080758  1
  Ni  Ni3  1  0.49999908  0.43942099  0.56074029  1
  Ni  Ni4  1  0.43933137  0.50004777  0.56084218  1
  Ni  Ni5  1  0.50001202  0.56068177  0.43917181  1
  Ni  Ni6  1  0.56066544  0.50000661  0.43914914  1
  Ni  Ni7  1  0.49998179  0.43933039  0.43914610  1
  Ni  Ni8  1  0.43933740  0.50006256  0.43910965  1
  Ni  Ni9  1  0.62128648  0.49999233  0.50000995  1
  Ni  Ni10  1  0.50000140  0.62130091  0.49998460  1
  Ni  Ni11  1  0.49999257  0.37872122  0.50005814  1
  Ni  Ni12  1  0.37871129  0.50001499  0.49999203  1
  Ni  Ni13  1  0.43938118  0.56062985  0.37871997  1
  Ni  Ni14  1  0.56061233  0.56061803  0.37877005  1
  Ni  Ni15  1  0.56061367  0.43938118  0.37872652  1
  Ni  Ni16  1  0.43936463  0.43941084  0.37871676  1
  Ni  Ni17  1  0.43939068  0.56062561  0.62128663  1
  Ni  Ni18  1  0.56061036  0.56061262  0.62126494  1
  Ni  Ni19  1  0.56081268  0.43958990  0.62123466  1
  Ni  Ni20  1  0.43942605  0.43942044  0.62122265  1
  Ni  Ni21  1  0.37829156  0.56066845  0.56063155  1
  Ni  Ni22  1  0.56077681  0.37834684  0.56053804  1
  Ni  Ni23  1  0.43932233  0.62169297  0.56063124  1
  Ni  Ni24  1  0.62168503  0.56068342  0.56062316  1
  Ni  Ni25  1  0.56067278  0.62169863  0.56062235  1
  Ni  Ni26  1  0.62172263  0.43934868  0.56060880  1
  Ni  Ni27  1  0.43931295  0.37824000  0.56071739  1
  Ni  Ni28  1  0.37836998  0.43931101  0.56063450  1
  Ni  Ni29  1  0.37829787  0.56068088  0.43935916  1
  Ni  Ni30  1  0.62169762  0.56066699  0.43937346  1
  Ni  Ni31  1  0.56064514  0.37828333  0.43936891  1
  Ni  Ni32  1  0.56066709  0.62171185  0.43937208  1
  Ni  Ni33  1  0.43933072  0.62169918  0.43936869  1
  Ni  Ni34  1  0.62170230  0.43933814  0.43936884  1
  Ni  Ni35  1  0.43936379  0.37837198  0.43928851  1
  Ni  Ni36  1  0.37830896  0.43945891  0.43926525  1
  Ni  Ni37  1  0.62167921  0.37835979  0.49997481  1
  Ni  Ni38  1  0.62166288  0.62165464  0.50000008  1
  Ni  Ni39  1  0.37833921  0.62165897  0.49999812  1
  Ni  Ni40  1  0.37844243  0.37855936  0.49962071  1
  Ni  Ni41  1  0.49998461  0.56116514  0.68155776  1
  Ni  Ni42  1  0.56117299  0.50005101  0.68157886  1
  Ni  Ni43  1  0.50002812  0.43884025  0.68157139  1
  Ni  Ni44  1  0.43883576  0.49999467  0.68156805  1
  Ni  Ni45  1  0.56116698  0.50001171  0.31845042  1
  Ni  Ni46  1  0.50001110  0.56115475  0.31844053  1
  Ni  Ni47  1  0.49997776  0.43884929  0.31845516  1
  Ni  Ni48  1  0.43882314  0.50002729  0.31844779  1
  Ni  Ni49  1  0.49996998  0.31746110  0.56073790  1
  Ni  Ni50  1  0.31737212  0.49999519  0.56072128  1
  Ni  Ni51  1  0.50000317  0.68263086  0.56070462  1
  Ni  Ni52  1  0.68263294  0.50001317  0.56070925  1
  Ni  Ni53  1  0.50004582  0.31737461  0.43920510  1
  Ni  Ni54  1  0.31735303  0.50000669  0.43930323  1
  Ni  Ni55  1  0.49999824  0.68262151  0.43928700  1
  Ni  Ni56  1  0.68263611  0.50000481  0.43927141  1
  Ni  Ni57  1  0.37907162  0.56010605  0.68044975  1
  Ni  Ni58  1  0.43988359  0.62091676  0.68044183  1
  Ni  Ni59  1  0.56011289  0.62090173  0.68044220  1
  Ni  Ni60  1  0.56017211  0.37910552  0.68049818  1
  Ni  Ni61  1  0.62093988  0.56012762  0.68046585  1
  Ni  Ni62  1  0.62095606  0.43988975  0.68047985  1
  Ni  Ni63  1  0.37913369  0.43986571  0.68041127  1
  Ni  Ni64  1  0.44004578  0.37896533  0.68029779  1
  Ni  Ni65  1  0.56012291  0.37907245  0.31954283  1
  Ni  Ni66  1  0.37908623  0.56012700  0.31953839  1
  Ni  Ni67  1  0.56012782  0.62093282  0.31954640  1
  Ni  Ni68  1  0.43988344  0.62091656  0.31955084  1
  Ni  Ni69  1  0.62093012  0.43987639  0.31955176  1
  Ni  Ni70  1  0.62092078  0.56012324  0.31955245  1
  Ni  Ni71  1  0.43987522  0.37905624  0.31954941  1
  Ni  Ni72  1  0.37906417  0.43988767  0.31954754  1
  Ni  Ni73  1  0.55989782  0.31883914  0.37987939  1
  Ni  Ni74  1  0.31878592  0.55991410  0.37993988  1
  Ni  Ni75  1  0.44010558  0.31879221  0.37989392  1
  Ni  Ni76  1  0.31876788  0.44011050  0.37990112  1
  Ni  Ni77  1  0.31878996  0.55990240  0.62004766  1
  Ni  Ni78  1  0.56006039  0.31890593  0.62001930  1
  Ni  Ni79  1  0.68121854  0.55991178  0.37995713  1
  Ni  Ni80  1  0.68121102  0.44008605  0.37994698  1
  Ni  Ni81  1  0.44009066  0.68120944  0.37993602  1
  Ni  Ni82  1  0.55991947  0.68121199  0.37994584  1
  Ni  Ni83  1  0.43970669  0.31835393  0.61974871  1
  Ni  Ni84  1  0.31885062  0.44005847  0.62001680  1
  Ni  Ni85  1  0.55990007  0.68120634  0.62006358  1
  Ni  Ni86  1  0.68119957  0.55989640  0.62000786  1
  Ni  Ni87  1  0.68121459  0.44007936  0.62005225  1
  Ni  Ni88  1  0.44008682  0.68120329  0.62005473  1
  Ni  Ni89  1  0.62142573  0.31879730  0.55965621  1
  Ni  Ni90  1  0.31880857  0.62138181  0.55966928  1
  Ni  Ni91  1  0.68120637  0.37862274  0.55965798  1
  Ni  Ni92  1  0.31900386  0.37850308  0.55966106  1
  Ni  Ni93  1  0.37903701  0.31825947  0.56017572  1
  Ni  Ni94  1  0.62138505  0.68119185  0.55966272  1
  Ni  Ni95  1  0.68120386  0.62137563  0.55968151  1
  Ni  Ni96  1  0.37862321  0.68120612  0.55967792  1
  Ni  Ni97  1  0.62142251  0.31884227  0.44033338  1
  Ni  Ni98  1  0.31880112  0.62138176  0.44033058  1
  Ni  Ni99  1  0.68121711  0.37862046  0.44032804  1
  Ni  Ni100  1  0.37864451  0.31879094  0.44020079  1
  Ni  Ni101  1  0.31879471  0.37870371  0.44025252  1
  Ni  Ni102  1  0.68121220  0.62138808  0.44031835  1
  Ni  Ni103  1  0.62138012  0.68120090  0.44030859  1
  Ni  Ni104  1  0.37861554  0.68119264  0.44032919  1
  Ni  Ni105  1  0.50026111  0.25858682  0.49970259  1
  Ni  Ni106  1  0.25848040  0.49999517  0.50002331  1
  Ni  Ni107  1  0.50000141  0.74151521  0.49998270  1
  Ni  Ni108  1  0.74152869  0.50000039  0.49999423  1
  Ni  Ni109  1  0.50008984  0.31576745  0.68369002  1
  Ni  Ni110  1  0.31547991  0.50000740  0.68380683  1
  Ni  Ni111  1  0.68460650  0.50000854  0.68389823  1
  Ni  Ni112  1  0.49999573  0.68458432  0.68385425  1
  Ni  Ni113  1  0.50000116  0.31543876  0.31613803  1
  Ni  Ni114  1  0.31540130  0.50002092  0.31613187  1
  Ni  Ni115  1  0.68456862  0.50001467  0.31615988  1
  Ni  Ni116  1  0.50001626  0.68457026  0.31615407  1
  Ni  Ni117  1  0.43931709  0.56068548  0.26085335  1
  Ni  Ni118  1  0.56068632  0.56068426  0.26085723  1
  Ni  Ni119  1  0.56069081  0.43931877  0.26086905  1
  Ni  Ni120  1  0.43931019  0.43932353  0.26086747  1
  Ni  Ni121  1  0.43930899  0.56068337  0.73913858  1
  Ni  Ni122  1  0.56067293  0.56069270  0.73913997  1
  Ni  Ni123  1  0.56069665  0.43932149  0.73913986  1
  Ni  Ni124  1  0.43933376  0.43933172  0.73918082  1
  Ni  Ni125  1  0.25952086  0.56019968  0.56032670  1
  Ni  Ni126  1  0.56027207  0.25952140  0.56027654  1
  Ni  Ni127  1  0.43930529  0.25982367  0.56064945  1
  Ni  Ni128  1  0.25949374  0.43984620  0.56033133  1
  Ni  Ni129  1  0.74048748  0.56017491  0.56033069  1
  Ni  Ni130  1  0.74047821  0.43981271  0.56033526  1
  Ni  Ni131  1  0.43981200  0.74049027  0.56033342  1
  Ni  Ni132  1  0.56019205  0.74048814  0.56033159  1
  Ni  Ni133  1  0.25950737  0.56018443  0.43967280  1
  Ni  Ni134  1  0.56033985  0.25946008  0.43955849  1
  Ni  Ni135  1  0.25952527  0.43981195  0.43969910  1
  Ni  Ni136  1  0.43990030  0.25953953  0.43954999  1
  Ni  Ni137  1  0.56018310  0.74049199  0.43964854  1
  Ni  Ni138  1  0.74048628  0.56018267  0.43965688  1
  Ni  Ni139  1  0.74049767  0.43980406  0.43965063  1
  Ni  Ni140  1  0.43981415  0.74048069  0.43965322  1
  Ni  Ni141  1  0.74296444  0.37669416  0.49999559  1
  Ni  Ni142  1  0.62330065  0.25700622  0.49998457  1
  Ni  Ni143  1  0.25703051  0.62331747  0.49998190  1
  Ni  Ni144  1  0.74296031  0.62332648  0.49997873  1
  Ni  Ni145  1  0.37675667  0.25719627  0.49987073  1
  Ni  Ni146  1  0.62332174  0.74297825  0.49998959  1
  Ni  Ni147  1  0.25700842  0.37676127  0.49996569  1
  Ni  Ni148  1  0.37668274  0.74297257  0.49999165  1
  Ni  Ni149  1  0.62277237  0.31836115  0.68087314  1
  Ni  Ni150  1  0.31838426  0.62279802  0.68085364  1
  Ni  Ni151  1  0.68161564  0.37719652  0.68087199  1
  Ni  Ni152  1  0.37757953  0.31859241  0.68076540  1
  Ni  Ni153  1  0.31847997  0.37731388  0.68073466  1
  Ni  Ni154  1  0.68158728  0.62277407  0.68084870  1
  Ni  Ni155  1  0.62281210  0.68161749  0.68085694  1
  Ni  Ni156  1  0.37720454  0.68161299  0.68083451  1
  Ni  Ni157  1  0.62282331  0.31841301  0.31914338  1
  Ni  Ni158  1  0.37722077  0.31839963  0.31913816  1
  Ni  Ni159  1  0.31837315  0.62279103  0.31913532  1
  Ni  Ni160  1  0.68162275  0.37720061  0.31915724  1
  Ni  Ni161  1  0.31838824  0.37719351  0.31913651  1
  Ni  Ni162  1  0.37720133  0.68160755  0.31914986  1
  Ni  Ni163  1  0.68161008  0.62278691  0.31915450  1
  Ni  Ni164  1  0.62278667  0.68161423  0.31915523  1
  Ni  Ni165  1  0.31824078  0.31824094  0.37855880  1
  Ni  Ni166  1  0.68174685  0.31826708  0.37857199  1
  Ni  Ni167  1  0.31824243  0.68175373  0.37856919  1
  Ni  Ni168  1  0.31832089  0.31838836  0.62112408  1
  Ni  Ni169  1  0.68174002  0.68174863  0.37857890  1
  Ni  Ni170  1  0.68175402  0.31825733  0.62141748  1
  Ni  Ni171  1  0.31826324  0.68174429  0.62141004  1
  Ni  Ni172  1  0.68173890  0.68174560  0.62143320  1
  Ni  Ni173  1  0.43965778  0.50003199  0.79847754  1
  Ni  Ni174  1  0.49999439  0.56033480  0.79847820  1
  Ni  Ni175  1  0.50001057  0.43968443  0.79850862  1
  Ni  Ni176  1  0.56031206  0.50002081  0.79846520  1
  Ni  Ni177  1  0.43965263  0.49999530  0.20152437  1
  Ni  Ni178  1  0.56033686  0.50000342  0.20154111  1
  Ni  Ni179  1  0.50000571  0.43967646  0.20153708  1
  Ni  Ni180  1  0.50000070  0.56033173  0.20153761  1
  Ni  Ni181  1  0.56249033  0.26261657  0.67942650  1
  Ni  Ni182  1  0.26262940  0.56250895  0.67945573  1
  Ni  Ni183  1  0.26259256  0.43755370  0.67946481  1
  Ni  Ni184  1  0.43777683  0.26305249  0.67922407  1
  Ni  Ni185  1  0.56251093  0.73738870  0.67942903  1
  Ni  Ni186  1  0.43747483  0.73738824  0.67943764  1
  Ni  Ni187  1  0.73738622  0.43746939  0.67949916  1
  Ni  Ni188  1  0.73739411  0.56251033  0.67945565  1
  Ni  Ni189  1  0.56255163  0.26264173  0.32052449  1
  Ni  Ni190  1  0.26258546  0.56252866  0.32053432  1
  Ni  Ni191  1  0.26258695  0.43749055  0.32050476  1
  Ni  Ni192  1  0.43749830  0.26259518  0.32052507  1
  Ni  Ni193  1  0.56252710  0.73740632  0.32052127  1
  Ni  Ni194  1  0.73739729  0.56252951  0.32054262  1
  Ni  Ni195  1  0.43747947  0.73737654  0.32052878  1
  Ni  Ni196  1  0.73738976  0.43748433  0.32054276  1
  Ni  Ni197  1  0.32006947  0.56257867  0.26347444  1
  Ni  Ni198  1  0.56257828  0.32010319  0.26348926  1
  Ni  Ni199  1  0.32007581  0.43743622  0.26348407  1
  Ni  Ni200  1  0.43742834  0.32008504  0.26348369  1
  Ni  Ni201  1  0.56258292  0.67994656  0.26347249  1
  Ni  Ni202  1  0.67992282  0.43743149  0.26349023  1
  Ni  Ni203  1  0.67992769  0.56258194  0.26348576  1
  Ni  Ni204  1  0.43742340  0.67991981  0.26350127  1
  Ni  Ni205  1  0.56256462  0.32004045  0.73658328  1
  Ni  Ni206  1  0.32009507  0.56257804  0.73651144  1
  Ni  Ni207  1  0.43744701  0.32022139  0.73663765  1
  Ni  Ni208  1  0.32005212  0.43748507  0.73653662  1
  Ni  Ni209  1  0.67992445  0.56258029  0.73652030  1
  Ni  Ni210  1  0.56257735  0.67990750  0.73648033  1
  Ni  Ni211  1  0.43743181  0.67988840  0.73648835  1
  Ni  Ni212  1  0.67992553  0.43741563  0.73652867  1
  Ni  Ni213  1  0.79887400  0.49999250  0.55976199  1
  Ni  Ni214  1  0.50010288  0.20132224  0.55964168  1
  Ni  Ni215  1  0.49999671  0.79889464  0.55975715  1
  Ni  Ni216  1  0.67934288  0.26094596  0.56223468  1
  Ni  Ni217  1  0.32094135  0.26130987  0.56189643  1
  Ni  Ni218  1  0.73905378  0.32066189  0.56222556  1
  Ni  Ni219  1  0.20110858  0.50002875  0.55974567  1
  Ni  Ni220  1  0.26090375  0.32080222  0.56209353  1
  Ni  Ni221  1  0.32067186  0.73903204  0.56223028  1
  Ni  Ni222  1  0.26096847  0.67932509  0.56222486  1
  Ni  Ni223  1  0.73900662  0.67932245  0.56222540  1
  Ni  Ni224  1  0.67933589  0.73901061  0.56222649  1
  Ni  Ni225  1  0.67932922  0.26099569  0.43776018  1
  Ni  Ni226  1  0.79888914  0.49998092  0.44022840  1
  Ni  Ni227  1  0.50017309  0.20097231  0.44001351  1
  Ni  Ni228  1  0.50000373  0.79889848  0.44023810  1
  Ni  Ni229  1  0.73903066  0.32065055  0.43777377  1
  Ni  Ni230  1  0.20112968  0.50002133  0.44023773  1
  Ni  Ni231  1  0.26097507  0.67933973  0.43777774  1
  Ni  Ni232  1  0.32066161  0.26096585  0.43780621  1
  Ni  Ni233  1  0.26095419  0.32072732  0.43776199  1
  Ni  Ni234  1  0.32066207  0.73903422  0.43778602  1
  Ni  Ni235  1  0.73905612  0.67936341  0.43776529  1
  Ni  Ni236  1  0.67934498  0.73904637  0.43777838  1
  Ni  Ni237  1  0.38255479  0.56128475  0.79687712  1
  Ni  Ni238  1  0.56129144  0.61742221  0.79690042  1
  Ni  Ni239  1  0.43871500  0.61743686  0.79686485  1
  Ni  Ni240  1  0.61745464  0.56128000  0.79690025  1
  Ni  Ni241  1  0.61742101  0.43870019  0.79689761  1
  Ni  Ni242  1  0.56131464  0.38252276  0.79692734  1
  Ni  Ni243  1  0.38252648  0.43871938  0.79695376  1
  Ni  Ni244  1  0.43873081  0.38256747  0.79698597  1
  Ni  Ni245  1  0.38254897  0.56128117  0.20309990  1
  Ni  Ni246  1  0.61745263  0.43872127  0.20313826  1
  Ni  Ni247  1  0.43873198  0.61743775  0.20311865  1
  Ni  Ni248  1  0.43870615  0.38256133  0.20312048  1
  Ni  Ni249  1  0.56128043  0.38256004  0.20312754  1
  Ni  Ni250  1  0.56127768  0.61744483  0.20310452  1
  Ni  Ni251  1  0.61744164  0.56128850  0.20312062  1
  Ni  Ni252  1  0.38255353  0.43872166  0.20311725  1
  Ni  Ni253  1  0.56174560  0.20192435  0.38364142  1
  Ni  Ni254  1  0.20203551  0.43829605  0.38377858  1
  Ni  Ni255  1  0.43831203  0.79800590  0.38376221  1
  Ni  Ni256  1  0.79799730  0.43829480  0.38373002  1
  Ni  Ni257  1  0.79799472  0.56170370  0.38376286  1
  Ni  Ni258  1  0.43831205  0.20200492  0.38366529  1
  Ni  Ni259  1  0.56169177  0.79800733  0.38374001  1
  Ni  Ni260  1  0.56164739  0.20204845  0.61624724  1
  Ni  Ni261  1  0.20198552  0.56168671  0.38373296  1
  Ni  Ni262  1  0.56169714  0.79796715  0.61624815  1
  Ni  Ni263  1  0.79797081  0.56168731  0.61625037  1
  Ni  Ni264  1  0.43830716  0.79798261  0.61624633  1
  Ni  Ni265  1  0.20201810  0.56169911  0.61624465  1
  Ni  Ni266  1  0.43867437  0.20226929  0.61551815  1
  Ni  Ni267  1  0.20196462  0.43833270  0.61627330  1
  Ni  Ni268  1  0.79800887  0.43829512  0.61625170  1
  Ni  Ni269  1  0.79630510  0.38104187  0.55971457  1
  Ni  Ni270  1  0.61899026  0.20369397  0.55971619  1
  Ni  Ni271  1  0.38105561  0.79630090  0.55973033  1
  Ni  Ni272  1  0.38151955  0.20395338  0.55933730  1
  Ni  Ni273  1  0.20368740  0.61895794  0.55972635  1
  Ni  Ni274  1  0.79627695  0.61892355  0.55970977  1
  Ni  Ni275  1  0.61895351  0.79631827  0.55973481  1
  Ni  Ni276  1  0.20361138  0.38108246  0.55968348  1
  Ni  Ni277  1  0.79633059  0.38103563  0.44027724  1
  Ni  Ni278  1  0.61900869  0.20364692  0.44023493  1
  Ni  Ni279  1  0.38105217  0.79631462  0.44026750  1
  Ni  Ni280  1  0.79632229  0.61896441  0.44027154  1
  Ni  Ni281  1  0.20367194  0.61895236  0.44027046  1
  Ni  Ni282  1  0.61895450  0.79633125  0.44027333  1
  Ni  Ni283  1  0.38112815  0.20374843  0.44031235  1
  Ni  Ni284  1  0.20364272  0.38103524  0.44024931  1
  H  H285  1  0.34479906  0.22570536  0.65450146  1
  Pt  Pt286  1  0.56086308  0.56086456  0.49998343  1
  Pt  Pt287  1  0.43911717  0.56086903  0.50000164  1
  Pt  Pt288  1  0.56085935  0.43914824  0.49996035  1
  Pt  Pt289  1  0.43913668  0.43919884  0.49998727  1
  Pt  Pt290  1  0.49999031  0.49999504  0.37818072  1
  Pt  Pt291  1  0.50001580  0.50001972  0.62183568  1
  Pt  Pt292  1  0.62131579  0.49999607  0.37912233  1
  Pt  Pt293  1  0.50000489  0.62131975  0.37911531  1
  Pt  Pt294  1  0.49999805  0.62132647  0.62086561  1
  Pt  Pt295  1  0.62135330  0.49999570  0.62091533  1
  Pt  Pt296  1  0.49998545  0.37870047  0.37911427  1
  Pt  Pt297  1  0.37864288  0.50002782  0.37908666  1
  Pt  Pt298  1  0.50028590  0.37898510  0.62073200  1
  Pt  Pt299  1  0.37869776  0.49997326  0.62086926  1
  Pt  Pt300  1  0.31869407  0.56054084  0.50000406  1
  Pt  Pt301  1  0.56061005  0.31869976  0.49996108  1
  Pt  Pt302  1  0.43938238  0.31867198  0.50003699  1
  Pt  Pt303  1  0.31873396  0.43945055  0.50004648  1
  Pt  Pt304  1  0.68131131  0.56054498  0.49999686  1
  Pt  Pt305  1  0.56055665  0.68131674  0.49999581  1
  Pt  Pt306  1  0.68132363  0.43946718  0.49999040  1
  Pt  Pt307  1  0.43944442  0.68131063  0.50000004  1
  Pt  Pt308  1  0.62108402  0.62108018  0.37941379  1
  Pt  Pt309  1  0.62107610  0.62108435  0.62059116  1
  Pt  Pt310  1  0.62108754  0.37890953  0.37942031  1
  Pt  Pt311  1  0.37891172  0.62109059  0.37940976  1
  Pt  Pt312  1  0.62113740  0.37896024  0.62060368  1
  Pt  Pt313  1  0.37890947  0.62107306  0.62059778  1
  Pt  Pt314  1  0.37890411  0.37894646  0.37938816  1
  Pt  Pt315  1  0.37907454  0.37877817  0.62053667  1
  Pt  Pt316  1  0.49999054  0.49999462  0.25927948  1
  Pt  Pt317  1  0.49998540  0.49999371  0.74071021  1
  Pt  Pt318  1  0.68516652  0.31483227  0.50000756  1
  Pt  Pt319  1  0.31507044  0.31510841  0.49993012  1
  Pt  Pt320  1  0.31484624  0.68515328  0.50000185  1
  Pt  Pt321  1  0.68515250  0.68515057  0.49998494  1
  Pt  Pt322  1  0.50001803  0.62496591  0.25658745  1
  Pt  Pt323  1  0.62496585  0.50001084  0.25657810  1
  Pt  Pt324  1  0.62496349  0.49999325  0.74344202  1
  Pt  Pt325  1  0.50001918  0.62497181  0.74343990  1
  Pt  Pt326  1  0.49998596  0.37505349  0.25657284  1
  Pt  Pt327  1  0.37502217  0.50000783  0.25656508  1
  Pt  Pt328  1  0.50004066  0.37513726  0.74349771  1
  Pt  Pt329  1  0.37502493  0.49999126  0.74345221  1
  Pt  Pt330  1  0.74471350  0.50000000  0.37504329  1
  Pt  Pt331  1  0.50000522  0.74469066  0.37505270  1
  Pt  Pt332  1  0.74468277  0.49997538  0.62495116  1
  Pt  Pt333  1  0.49998966  0.74470078  0.62494053  1
  Pt  Pt334  1  0.50005829  0.25531493  0.37505124  1
  Pt  Pt335  1  0.25530468  0.50000133  0.37505337  1
  Pt  Pt336  1  0.25530484  0.50000677  0.62494542  1
  Pt  Pt337  1  0.50010027  0.25561904  0.62476636  1
  Pt  Pt338  1  0.62242842  0.62242989  0.25953541  1
  Pt  Pt339  1  0.62241303  0.62242960  0.74046470  1
  Pt  Pt340  1  0.62243983  0.37757870  0.25952015  1
  Pt  Pt341  1  0.37755925  0.62242401  0.25952332  1
  Pt  Pt342  1  0.62242198  0.37753850  0.74048024  1
  Pt  Pt343  1  0.37757957  0.62243061  0.74044294  1
  Pt  Pt344  1  0.37757084  0.37759371  0.25954870  1
  Pt  Pt345  1  0.37761011  0.37774428  0.74040654  1
  Pt  Pt346  1  0.74121944  0.62228270  0.37798661  1
  Pt  Pt347  1  0.62227990  0.74124154  0.37799598  1
  Pt  Pt348  1  0.74120326  0.62226919  0.62204012  1
  Pt  Pt349  1  0.62227298  0.74119879  0.62199990  1
  Pt  Pt350  1  0.74123228  0.37772005  0.37799848  1
  Pt  Pt351  1  0.37772906  0.74121104  0.37799615  1
  Pt  Pt352  1  0.74120273  0.37773104  0.62201495  1
  Pt  Pt353  1  0.37772922  0.74121450  0.62200586  1
  Pt  Pt354  1  0.25879390  0.62226178  0.37800406  1
  Pt  Pt355  1  0.62224323  0.25880949  0.37800838  1
  Pt  Pt356  1  0.62227194  0.25877688  0.62203301  1
  Pt  Pt357  1  0.25880294  0.62226827  0.62200736  1
  Pt  Pt358  1  0.25879972  0.37773834  0.37796914  1
  Pt  Pt359  1  0.37771043  0.25877330  0.37795160  1
  Pt  Pt360  1  0.25881117  0.37784806  0.62194273  1
  Pt  Pt361  1  0.37484206  0.25546853  0.62455959  1
  Pt  Pt362  1  0.56060979  0.19804209  0.49996442  1
  Pt  Pt363  1  0.43942674  0.80182965  0.49999750  1
  Pt  Pt364  1  0.43976046  0.19836133  0.49991189  1
  Pt  Pt365  1  0.56056904  0.80182768  0.50000818  1
  Pt  Pt366  1  0.19814918  0.43945911  0.49998393  1
  Pt  Pt367  1  0.80182346  0.43943106  0.50000146  1
  Pt  Pt368  1  0.80183106  0.56056608  0.49998714  1
  Pt  Pt369  1  0.19814967  0.56058502  0.50000420  1
