# generated using pymatgen
data_Ni285HPt84
_symmetry_space_group_name_H-M   'P 1'
_cell_length_a   30.00000000
_cell_length_b   30.00000000
_cell_length_c   30.00000000
_cell_angle_alpha   90.00000000
_cell_angle_beta   90.00000000
_cell_angle_gamma   90.00000000
_symmetry_Int_Tables_number   1
_chemical_formula_structural   Ni285HPt84
_chemical_formula_sum   'Ni285 H1 Pt84'
_cell_volume   27000.00000000
_cell_formula_units_Z   1
loop_
 _symmetry_equiv_pos_site_id
 _symmetry_equiv_pos_as_xyz
  1  'x, y, z'
loop_
 _atom_site_type_symbol
 _atom_site_label
 _atom_site_symmetry_multiplicity
 _atom_site_fract_x
 _atom_site_fract_y
 _atom_site_fract_z
 _atom_site_occupancy
  Ni  Ni0  1  0.50000000  0.50000000  0.50000000  1
  Ni  Ni1  1  0.50000000  0.56079000  0.56055000  1
  Ni  Ni2  1  0.56079000  0.50000000  0.56055000  1
  Ni  Ni3  1  0.50000000  0.43921000  0.56055000  1
  Ni  Ni4  1  0.43921000  0.50000000  0.56055000  1
  Ni  Ni5  1  0.50000000  0.56079000  0.43945000  1
  Ni  Ni6  1  0.56079000  0.50000000  0.43945000  1
  Ni  Ni7  1  0.50000000  0.43921000  0.43945000  1
  Ni  Ni8  1  0.43921000  0.50000000  0.43945000  1
  Ni  Ni9  1  0.62159000  0.50000000  0.50000000  1
  Ni  Ni10  1  0.50000000  0.62159000  0.50000000  1
  Ni  Ni11  1  0.50000000  0.37841000  0.50000000  1
  Ni  Ni12  1  0.37841000  0.50000000  0.50000000  1
  Ni  Ni13  1  0.43921000  0.56079000  0.37941000  1
  Ni  Ni14  1  0.56079000  0.56079000  0.37941000  1
  Ni  Ni15  1  0.56079000  0.43921000  0.37941000  1
  Ni  Ni16  1  0.43921000  0.43921000  0.37941000  1
  Ni  Ni17  1  0.43921000  0.56079000  0.62059000  1
  Ni  Ni18  1  0.56079000  0.56079000  0.62059000  1
  Ni  Ni19  1  0.56079000  0.43921000  0.62059000  1
  Ni  Ni20  1  0.43921000  0.43921000  0.62059000  1
  Ni  Ni21  1  0.37841000  0.56079000  0.56055000  1
  Ni  Ni22  1  0.56079000  0.37841000  0.56055000  1
  Ni  Ni23  1  0.43921000  0.62159000  0.56055000  1
  Ni  Ni24  1  0.62159000  0.56079000  0.56055000  1
  Ni  Ni25  1  0.56079000  0.62159000  0.56055000  1
  Ni  Ni26  1  0.62159000  0.43921000  0.56055000  1
  Ni  Ni27  1  0.43921000  0.37841000  0.56055000  1
  Ni  Ni28  1  0.37841000  0.43921000  0.56055000  1
  Ni  Ni29  1  0.37841000  0.56079000  0.43945000  1
  Ni  Ni30  1  0.62159000  0.56079000  0.43945000  1
  Ni  Ni31  1  0.56079000  0.37841000  0.43945000  1
  Ni  Ni32  1  0.56079000  0.62159000  0.43945000  1
  Ni  Ni33  1  0.43921000  0.62159000  0.43945000  1
  Ni  Ni34  1  0.62159000  0.43921000  0.43945000  1
  Ni  Ni35  1  0.43921000  0.37841000  0.43945000  1
  Ni  Ni36  1  0.37841000  0.43921000  0.43945000  1
  Ni  Ni37  1  0.62159000  0.37841000  0.50000000  1
  Ni  Ni38  1  0.62159000  0.62159000  0.50000000  1
  Ni  Ni39  1  0.37841000  0.62159000  0.50000000  1
  Ni  Ni40  1  0.37841000  0.37841000  0.50000000  1
  Ni  Ni41  1  0.50000000  0.56079000  0.68162000  1
  Ni  Ni42  1  0.56079000  0.50000000  0.68162000  1
  Ni  Ni43  1  0.50000000  0.43921000  0.68162000  1
  Ni  Ni44  1  0.43921000  0.50000000  0.68162000  1
  Ni  Ni45  1  0.56079000  0.50000000  0.31838000  1
  Ni  Ni46  1  0.50000000  0.56079000  0.31838000  1
  Ni  Ni47  1  0.50000000  0.43921000  0.31838000  1
  Ni  Ni48  1  0.43921000  0.50000000  0.31838000  1
  Ni  Ni49  1  0.50000000  0.31762000  0.56055000  1
  Ni  Ni50  1  0.31762000  0.50000000  0.56055000  1
  Ni  Ni51  1  0.50000000  0.68238000  0.56055000  1
  Ni  Ni52  1  0.68238000  0.50000000  0.56055000  1
  Ni  Ni53  1  0.50000000  0.31762000  0.43945000  1
  Ni  Ni54  1  0.31762000  0.50000000  0.43945000  1
  Ni  Ni55  1  0.50000000  0.68238000  0.43945000  1
  Ni  Ni56  1  0.68238000  0.50000000  0.43945000  1
  Ni  Ni57  1  0.37841000  0.56079000  0.68162000  1
  Ni  Ni58  1  0.43921000  0.62159000  0.68162000  1
  Ni  Ni59  1  0.56079000  0.62159000  0.68162000  1
  Ni  Ni60  1  0.56079000  0.37841000  0.68162000  1
  Ni  Ni61  1  0.62159000  0.56079000  0.68162000  1
  Ni  Ni62  1  0.62159000  0.43921000  0.68162000  1
  Ni  Ni63  1  0.37841000  0.43921000  0.68162000  1
  Ni  Ni64  1  0.43921000  0.37841000  0.68162000  1
  Ni  Ni65  1  0.56079000  0.37841000  0.31838000  1
  Ni  Ni66  1  0.37841000  0.56079000  0.31838000  1
  Ni  Ni67  1  0.56079000  0.62159000  0.31838000  1
  Ni  Ni68  1  0.43921000  0.62159000  0.31838000  1
  Ni  Ni69  1  0.62159000  0.43921000  0.31838000  1
  Ni  Ni70  1  0.62159000  0.56079000  0.31838000  1
  Ni  Ni71  1  0.43921000  0.37841000  0.31838000  1
  Ni  Ni72  1  0.37841000  0.43921000  0.31838000  1
  Ni  Ni73  1  0.56079000  0.31762000  0.37941000  1
  Ni  Ni74  1  0.31762000  0.56079000  0.37941000  1
  Ni  Ni75  1  0.43921000  0.31762000  0.37941000  1
  Ni  Ni76  1  0.31762000  0.43921000  0.37941000  1
  Ni  Ni77  1  0.31762000  0.56079000  0.62059000  1
  Ni  Ni78  1  0.56079000  0.31762000  0.62059000  1
  Ni  Ni79  1  0.68238000  0.56079000  0.37941000  1
  Ni  Ni80  1  0.68238000  0.43921000  0.37941000  1
  Ni  Ni81  1  0.43921000  0.68238000  0.37941000  1
  Ni  Ni82  1  0.56079000  0.68238000  0.37941000  1
  Ni  Ni83  1  0.43921000  0.31762000  0.62059000  1
  Ni  Ni84  1  0.31762000  0.43921000  0.62059000  1
  Ni  Ni85  1  0.56079000  0.68238000  0.62059000  1
  Ni  Ni86  1  0.68238000  0.56079000  0.62059000  1
  Ni  Ni87  1  0.68238000  0.43921000  0.62059000  1
  Ni  Ni88  1  0.43921000  0.68238000  0.62059000  1
  Ni  Ni89  1  0.62159000  0.31762000  0.56055000  1
  Ni  Ni90  1  0.31762000  0.62159000  0.56055000  1
  Ni  Ni91  1  0.68238000  0.37841000  0.56055000  1
  Ni  Ni92  1  0.31762000  0.37841000  0.56055000  1
  Ni  Ni93  1  0.37841000  0.31762000  0.56055000  1
  Ni  Ni94  1  0.62159000  0.68238000  0.56055000  1
  Ni  Ni95  1  0.68238000  0.62159000  0.56055000  1
  Ni  Ni96  1  0.37841000  0.68238000  0.56055000  1
  Ni  Ni97  1  0.62159000  0.31762000  0.43945000  1
  Ni  Ni98  1  0.31762000  0.62159000  0.43945000  1
  Ni  Ni99  1  0.68238000  0.37841000  0.43945000  1
  Ni  Ni100  1  0.37841000  0.31762000  0.43945000  1
  Ni  Ni101  1  0.31762000  0.37841000  0.43945000  1
  Ni  Ni102  1  0.68238000  0.62159000  0.43945000  1
  Ni  Ni103  1  0.62159000  0.68238000  0.43945000  1
  Ni  Ni104  1  0.37841000  0.68238000  0.43945000  1
  Ni  Ni105  1  0.50000000  0.25683000  0.50000000  1
  Ni  Ni106  1  0.25683000  0.50000000  0.50000000  1
  Ni  Ni107  1  0.50000000  0.74317000  0.50000000  1
  Ni  Ni108  1  0.74317000  0.50000000  0.50000000  1
  Ni  Ni109  1  0.50000000  0.31762000  0.68162000  1
  Ni  Ni110  1  0.31762000  0.50000000  0.68162000  1
  Ni  Ni111  1  0.68238000  0.50000000  0.68162000  1
  Ni  Ni112  1  0.50000000  0.68238000  0.68162000  1
  Ni  Ni113  1  0.50000000  0.31762000  0.31838000  1
  Ni  Ni114  1  0.31762000  0.50000000  0.31838000  1
  Ni  Ni115  1  0.68238000  0.50000000  0.31838000  1
  Ni  Ni116  1  0.50000000  0.68238000  0.31838000  1
  Ni  Ni117  1  0.43921000  0.56079000  0.25735000  1
  Ni  Ni118  1  0.56079000  0.56079000  0.25735000  1
  Ni  Ni119  1  0.56079000  0.43921000  0.25735000  1
  Ni  Ni120  1  0.43921000  0.43921000  0.25735000  1
  Ni  Ni121  1  0.43921000  0.56079000  0.74265000  1
  Ni  Ni122  1  0.56079000  0.56079000  0.74265000  1
  Ni  Ni123  1  0.56079000  0.43921000  0.74265000  1
  Ni  Ni124  1  0.43921000  0.43921000  0.74265000  1
  Ni  Ni125  1  0.25683000  0.56079000  0.56055000  1
  Ni  Ni126  1  0.56079000  0.25683000  0.56055000  1
  Ni  Ni127  1  0.43921000  0.25683000  0.56055000  1
  Ni  Ni128  1  0.25683000  0.43921000  0.56055000  1
  Ni  Ni129  1  0.74317000  0.56079000  0.56055000  1
  Ni  Ni130  1  0.74317000  0.43921000  0.56055000  1
  Ni  Ni131  1  0.43921000  0.74317000  0.56055000  1
  Ni  Ni132  1  0.56079000  0.74317000  0.56055000  1
  Ni  Ni133  1  0.25683000  0.56079000  0.43945000  1
  Ni  Ni134  1  0.56079000  0.25683000  0.43945000  1
  Ni  Ni135  1  0.25683000  0.43921000  0.43945000  1
  Ni  Ni136  1  0.43921000  0.25683000  0.43945000  1
  Ni  Ni137  1  0.56079000  0.74317000  0.43945000  1
  Ni  Ni138  1  0.74317000  0.56079000  0.43945000  1
  Ni  Ni139  1  0.74317000  0.43921000  0.43945000  1
  Ni  Ni140  1  0.43921000  0.74317000  0.43945000  1
  Ni  Ni141  1  0.74317000  0.37841000  0.50000000  1
  Ni  Ni142  1  0.62159000  0.25683000  0.50000000  1
  Ni  Ni143  1  0.25683000  0.62159000  0.50000000  1
  Ni  Ni144  1  0.74317000  0.62159000  0.50000000  1
  Ni  Ni145  1  0.37841000  0.25683000  0.50000000  1
  Ni  Ni146  1  0.62159000  0.74317000  0.50000000  1
  Ni  Ni147  1  0.25683000  0.37841000  0.50000000  1
  Ni  Ni148  1  0.37841000  0.74317000  0.50000000  1
  Ni  Ni149  1  0.62159000  0.31762000  0.68162000  1
  Ni  Ni150  1  0.31762000  0.62159000  0.68162000  1
  Ni  Ni151  1  0.68238000  0.37841000  0.68162000  1
  Ni  Ni152  1  0.37841000  0.31762000  0.68162000  1
  Ni  Ni153  1  0.31762000  0.37841000  0.68162000  1
  Ni  Ni154  1  0.68238000  0.62159000  0.68162000  1
  Ni  Ni155  1  0.62159000  0.68238000  0.68162000  1
  Ni  Ni156  1  0.37841000  0.68238000  0.68162000  1
  Ni  Ni157  1  0.62159000  0.31762000  0.31838000  1
  Ni  Ni158  1  0.37841000  0.31762000  0.31838000  1
  Ni  Ni159  1  0.31762000  0.62159000  0.31838000  1
  Ni  Ni160  1  0.68238000  0.37841000  0.31838000  1
  Ni  Ni161  1  0.31762000  0.37841000  0.31838000  1
  Ni  Ni162  1  0.37841000  0.68238000  0.31838000  1
  Ni  Ni163  1  0.68238000  0.62159000  0.31838000  1
  Ni  Ni164  1  0.62159000  0.68238000  0.31838000  1
  Ni  Ni165  1  0.31762000  0.31762000  0.37941000  1
  Ni  Ni166  1  0.68238000  0.31762000  0.37941000  1
  Ni  Ni167  1  0.31762000  0.68238000  0.37941000  1
  Ni  Ni168  1  0.31762000  0.31762000  0.62059000  1
  Ni  Ni169  1  0.68238000  0.68238000  0.37941000  1
  Ni  Ni170  1  0.68238000  0.31762000  0.62059000  1
  Ni  Ni171  1  0.31762000  0.68238000  0.62059000  1
  Ni  Ni172  1  0.68238000  0.68238000  0.62059000  1
  Ni  Ni173  1  0.43921000  0.50000000  0.80269000  1
  Ni  Ni174  1  0.50000000  0.56079000  0.80269000  1
  Ni  Ni175  1  0.50000000  0.43921000  0.80269000  1
  Ni  Ni176  1  0.56079000  0.50000000  0.80269000  1
  Ni  Ni177  1  0.43921000  0.50000000  0.19731000  1
  Ni  Ni178  1  0.56079000  0.50000000  0.19731000  1
  Ni  Ni179  1  0.50000000  0.43921000  0.19731000  1
  Ni  Ni180  1  0.50000000  0.56079000  0.19731000  1
  Ni  Ni181  1  0.56079000  0.25683000  0.68162000  1
  Ni  Ni182  1  0.25683000  0.56079000  0.68162000  1
  Ni  Ni183  1  0.25683000  0.43921000  0.68162000  1
  Ni  Ni184  1  0.43921000  0.25683000  0.68162000  1
  Ni  Ni185  1  0.56079000  0.74317000  0.68162000  1
  Ni  Ni186  1  0.43921000  0.74317000  0.68162000  1
  Ni  Ni187  1  0.74317000  0.43921000  0.68162000  1
  Ni  Ni188  1  0.74317000  0.56079000  0.68162000  1
  Ni  Ni189  1  0.56079000  0.25683000  0.31838000  1
  Ni  Ni190  1  0.25683000  0.56079000  0.31838000  1
  Ni  Ni191  1  0.25683000  0.43921000  0.31838000  1
  Ni  Ni192  1  0.43921000  0.25683000  0.31838000  1
  Ni  Ni193  1  0.56079000  0.74317000  0.31838000  1
  Ni  Ni194  1  0.74317000  0.56079000  0.31838000  1
  Ni  Ni195  1  0.43921000  0.74317000  0.31838000  1
  Ni  Ni196  1  0.74317000  0.43921000  0.31838000  1
  Ni  Ni197  1  0.31762000  0.56079000  0.25735000  1
  Ni  Ni198  1  0.56079000  0.31762000  0.25735000  1
  Ni  Ni199  1  0.31762000  0.43921000  0.25735000  1
  Ni  Ni200  1  0.43921000  0.31762000  0.25735000  1
  Ni  Ni201  1  0.56079000  0.68238000  0.25735000  1
  Ni  Ni202  1  0.68238000  0.43921000  0.25735000  1
  Ni  Ni203  1  0.68238000  0.56079000  0.25735000  1
  Ni  Ni204  1  0.43921000  0.68238000  0.25735000  1
  Ni  Ni205  1  0.56079000  0.31762000  0.74265000  1
  Ni  Ni206  1  0.31762000  0.56079000  0.74265000  1
  Ni  Ni207  1  0.43921000  0.31762000  0.74265000  1
  Ni  Ni208  1  0.31762000  0.43921000  0.74265000  1
  Ni  Ni209  1  0.68238000  0.56079000  0.74265000  1
  Ni  Ni210  1  0.56079000  0.68238000  0.74265000  1
  Ni  Ni211  1  0.43921000  0.68238000  0.74265000  1
  Ni  Ni212  1  0.68238000  0.43921000  0.74265000  1
  Ni  Ni213  1  0.80396000  0.50000000  0.56055000  1
  Ni  Ni214  1  0.50000000  0.19604000  0.56055000  1
  Ni  Ni215  1  0.50000000  0.80396000  0.56055000  1
  Ni  Ni216  1  0.68238000  0.25683000  0.56055000  1
  Ni  Ni217  1  0.31762000  0.25683000  0.56055000  1
  Ni  Ni218  1  0.74317000  0.31762000  0.56055000  1
  Ni  Ni219  1  0.19604000  0.50000000  0.56055000  1
  Ni  Ni220  1  0.25683000  0.31762000  0.56055000  1
  Ni  Ni221  1  0.31762000  0.74317000  0.56055000  1
  Ni  Ni222  1  0.25683000  0.68238000  0.56055000  1
  Ni  Ni223  1  0.74317000  0.68238000  0.56055000  1
  Ni  Ni224  1  0.68238000  0.74317000  0.56055000  1
  Ni  Ni225  1  0.68238000  0.25683000  0.43945000  1
  Ni  Ni226  1  0.80396000  0.50000000  0.43945000  1
  Ni  Ni227  1  0.50000000  0.19604000  0.43945000  1
  Ni  Ni228  1  0.50000000  0.80396000  0.43945000  1
  Ni  Ni229  1  0.74317000  0.31762000  0.43945000  1
  Ni  Ni230  1  0.19604000  0.50000000  0.43945000  1
  Ni  Ni231  1  0.25683000  0.68238000  0.43945000  1
  Ni  Ni232  1  0.31762000  0.25683000  0.43945000  1
  Ni  Ni233  1  0.25683000  0.31762000  0.43945000  1
  Ni  Ni234  1  0.31762000  0.74317000  0.43945000  1
  Ni  Ni235  1  0.74317000  0.68238000  0.43945000  1
  Ni  Ni236  1  0.68238000  0.74317000  0.43945000  1
  Ni  Ni237  1  0.37841000  0.56079000  0.80269000  1
  Ni  Ni238  1  0.56079000  0.62159000  0.80269000  1
  Ni  Ni239  1  0.43921000  0.62159000  0.80269000  1
  Ni  Ni240  1  0.62159000  0.56079000  0.80269000  1
  Ni  Ni241  1  0.62159000  0.43921000  0.80269000  1
  Ni  Ni242  1  0.56079000  0.37841000  0.80269000  1
  Ni  Ni243  1  0.37841000  0.43921000  0.80269000  1
  Ni  Ni244  1  0.43921000  0.37841000  0.80269000  1
  Ni  Ni245  1  0.37841000  0.56079000  0.19731000  1
  Ni  Ni246  1  0.62159000  0.43921000  0.19731000  1
  Ni  Ni247  1  0.43921000  0.62159000  0.19731000  1
  Ni  Ni248  1  0.43921000  0.37841000  0.19731000  1
  Ni  Ni249  1  0.56079000  0.37841000  0.19731000  1
  Ni  Ni250  1  0.56079000  0.62159000  0.19731000  1
  Ni  Ni251  1  0.62159000  0.56079000  0.19731000  1
  Ni  Ni252  1  0.37841000  0.43921000  0.19731000  1
  Ni  Ni253  1  0.56079000  0.19604000  0.37941000  1
  Ni  Ni254  1  0.19604000  0.43921000  0.37941000  1
  Ni  Ni255  1  0.43921000  0.80396000  0.37941000  1
  Ni  Ni256  1  0.80396000  0.43921000  0.37941000  1
  Ni  Ni257  1  0.80396000  0.56079000  0.37941000  1
  Ni  Ni258  1  0.43921000  0.19604000  0.37941000  1
  Ni  Ni259  1  0.56079000  0.80396000  0.37941000  1
  Ni  Ni260  1  0.56079000  0.19604000  0.62059000  1
  Ni  Ni261  1  0.19604000  0.56079000  0.37941000  1
  Ni  Ni262  1  0.56079000  0.80396000  0.62059000  1
  Ni  Ni263  1  0.80396000  0.56079000  0.62059000  1
  Ni  Ni264  1  0.43921000  0.80396000  0.62059000  1
  Ni  Ni265  1  0.19604000  0.56079000  0.62059000  1
  Ni  Ni266  1  0.43921000  0.19604000  0.62059000  1
  Ni  Ni267  1  0.19604000  0.43921000  0.62059000  1
  Ni  Ni268  1  0.80396000  0.43921000  0.62059000  1
  Ni  Ni269  1  0.80396000  0.37841000  0.56055000  1
  Ni  Ni270  1  0.62159000  0.19604000  0.56055000  1
  Ni  Ni271  1  0.37841000  0.80396000  0.56055000  1
  Ni  Ni272  1  0.37841000  0.19604000  0.56055000  1
  Ni  Ni273  1  0.19604000  0.62159000  0.56055000  1
  Ni  Ni274  1  0.80396000  0.62159000  0.56055000  1
  Ni  Ni275  1  0.62159000  0.80396000  0.56055000  1
  Ni  Ni276  1  0.19604000  0.37841000  0.56055000  1
  Ni  Ni277  1  0.80396000  0.37841000  0.43945000  1
  Ni  Ni278  1  0.62159000  0.19604000  0.43945000  1
  Ni  Ni279  1  0.37841000  0.80396000  0.43945000  1
  Ni  Ni280  1  0.80396000  0.62159000  0.43945000  1
  Ni  Ni281  1  0.19604000  0.62159000  0.43945000  1
  Ni  Ni282  1  0.62159000  0.80396000  0.43945000  1
  Ni  Ni283  1  0.37841000  0.19604000  0.43945000  1
  Ni  Ni284  1  0.19604000  0.37841000  0.43945000  1
  H  H285  1  0.85662000  0.56153000  0.49905000  1
  Pt  Pt286  1  0.56079000  0.56079000  0.50000000  1
  Pt  Pt287  1  0.43921000  0.56079000  0.50000000  1
  Pt  Pt288  1  0.56079000  0.43921000  0.50000000  1
  Pt  Pt289  1  0.43921000  0.43921000  0.50000000  1
  Pt  Pt290  1  0.50000000  0.50000000  0.37874000  1
  Pt  Pt291  1  0.50000000  0.50000000  0.62126000  1
  Pt  Pt292  1  0.62159000  0.50000000  0.37874000  1
  Pt  Pt293  1  0.50000000  0.62159000  0.37874000  1
  Pt  Pt294  1  0.50000000  0.62159000  0.62126000  1
  Pt  Pt295  1  0.62159000  0.50000000  0.62126000  1
  Pt  Pt296  1  0.50000000  0.37841000  0.37874000  1
  Pt  Pt297  1  0.37841000  0.50000000  0.37874000  1
  Pt  Pt298  1  0.50000000  0.37841000  0.62126000  1
  Pt  Pt299  1  0.37841000  0.50000000  0.62126000  1
  Pt  Pt300  1  0.31762000  0.56079000  0.50000000  1
  Pt  Pt301  1  0.56079000  0.31762000  0.50000000  1
  Pt  Pt302  1  0.43921000  0.31762000  0.50000000  1
  Pt  Pt303  1  0.31762000  0.43921000  0.50000000  1
  Pt  Pt304  1  0.68238000  0.56079000  0.50000000  1
  Pt  Pt305  1  0.56079000  0.68238000  0.50000000  1
  Pt  Pt306  1  0.68238000  0.43921000  0.50000000  1
  Pt  Pt307  1  0.43921000  0.68238000  0.50000000  1
  Pt  Pt308  1  0.62159000  0.62159000  0.37874000  1
  Pt  Pt309  1  0.62159000  0.62159000  0.62126000  1
  Pt  Pt310  1  0.62159000  0.37841000  0.37874000  1
  Pt  Pt311  1  0.37841000  0.62159000  0.37874000  1
  Pt  Pt312  1  0.62159000  0.37841000  0.62126000  1
  Pt  Pt313  1  0.37841000  0.62159000  0.62126000  1
  Pt  Pt314  1  0.37841000  0.37841000  0.37874000  1
  Pt  Pt315  1  0.37841000  0.37841000  0.62126000  1
  Pt  Pt316  1  0.50000000  0.50000000  0.25803000  1
  Pt  Pt317  1  0.50000000  0.50000000  0.74197000  1
  Pt  Pt318  1  0.68238000  0.31762000  0.50000000  1
  Pt  Pt319  1  0.31762000  0.31762000  0.50000000  1
  Pt  Pt320  1  0.31762000  0.68238000  0.50000000  1
  Pt  Pt321  1  0.68238000  0.68238000  0.50000000  1
  Pt  Pt322  1  0.50000000  0.62159000  0.25803000  1
  Pt  Pt323  1  0.62159000  0.50000000  0.25803000  1
  Pt  Pt324  1  0.62159000  0.50000000  0.74197000  1
  Pt  Pt325  1  0.50000000  0.62159000  0.74197000  1
  Pt  Pt326  1  0.50000000  0.37841000  0.25803000  1
  Pt  Pt327  1  0.37841000  0.50000000  0.25803000  1
  Pt  Pt328  1  0.50000000  0.37841000  0.74197000  1
  Pt  Pt329  1  0.37841000  0.50000000  0.74197000  1
  Pt  Pt330  1  0.74317000  0.50000000  0.37874000  1
  Pt  Pt331  1  0.50000000  0.74317000  0.37874000  1
  Pt  Pt332  1  0.74317000  0.50000000  0.62126000  1
  Pt  Pt333  1  0.50000000  0.74317000  0.62126000  1
  Pt  Pt334  1  0.50000000  0.25683000  0.37874000  1
  Pt  Pt335  1  0.25683000  0.50000000  0.37874000  1
  Pt  Pt336  1  0.25683000  0.50000000  0.62126000  1
  Pt  Pt337  1  0.50000000  0.25683000  0.62126000  1
  Pt  Pt338  1  0.62159000  0.62159000  0.25803000  1
  Pt  Pt339  1  0.62159000  0.62159000  0.74197000  1
  Pt  Pt340  1  0.62159000  0.37841000  0.25803000  1
  Pt  Pt341  1  0.37841000  0.62159000  0.25803000  1
  Pt  Pt342  1  0.62159000  0.37841000  0.74197000  1
  Pt  Pt343  1  0.37841000  0.62159000  0.74197000  1
  Pt  Pt344  1  0.37841000  0.37841000  0.25803000  1
  Pt  Pt345  1  0.37841000  0.37841000  0.74197000  1
  Pt  Pt346  1  0.74317000  0.62159000  0.37874000  1
  Pt  Pt347  1  0.62159000  0.74317000  0.37874000  1
  Pt  Pt348  1  0.74317000  0.62159000  0.62126000  1
  Pt  Pt349  1  0.62159000  0.74317000  0.62126000  1
  Pt  Pt350  1  0.74317000  0.37841000  0.37874000  1
  Pt  Pt351  1  0.37841000  0.74317000  0.37874000  1
  Pt  Pt352  1  0.74317000  0.37841000  0.62126000  1
  Pt  Pt353  1  0.37841000  0.74317000  0.62126000  1
  Pt  Pt354  1  0.25683000  0.62159000  0.37874000  1
  Pt  Pt355  1  0.62159000  0.25683000  0.37874000  1
  Pt  Pt356  1  0.62159000  0.25683000  0.62126000  1
  Pt  Pt357  1  0.25683000  0.62159000  0.62126000  1
  Pt  Pt358  1  0.25683000  0.37841000  0.37874000  1
  Pt  Pt359  1  0.37841000  0.25683000  0.37874000  1
  Pt  Pt360  1  0.25683000  0.37841000  0.62126000  1
  Pt  Pt361  1  0.37841000  0.25683000  0.62126000  1
  Pt  Pt362  1  0.56079000  0.19604000  0.50000000  1
  Pt  Pt363  1  0.43921000  0.80396000  0.50000000  1
  Pt  Pt364  1  0.43921000  0.19604000  0.50000000  1
  Pt  Pt365  1  0.56079000  0.80396000  0.50000000  1
  Pt  Pt366  1  0.19604000  0.43921000  0.50000000  1
  Pt  Pt367  1  0.80396000  0.43921000  0.50000000  1
  Pt  Pt368  1  0.80396000  0.56079000  0.50000000  1
  Pt  Pt369  1  0.19604000  0.56079000  0.50000000  1
