data_con4.116_123
_audit_creation_date              2024-04-18
_audit_creation_method            'Materials Studio'
_symmetry_space_group_name_H-M    'P1'
_symmetry_Int_Tables_number       1
_symmetry_cell_setting            triclinic
loop_
_symmetry_equiv_pos_as_xyz
  x,y,z
_cell_length_a                    30.0000
_cell_length_b                    30.0000
_cell_length_c                    30.0000
_cell_angle_alpha                 90.0000
_cell_angle_beta                  90.0000
_cell_angle_gamma                 90.0000
loop_
_atom_site_label
_atom_site_type_symbol
_atom_site_fract_x
_atom_site_fract_y
_atom_site_fract_z
_atom_site_U_iso_or_equiv
_atom_site_adp_type
_atom_site_occupancy
Ni1    Ni    0.50000   0.50000   0.50000   0.00000  Uiso   1.00
Ni2    Ni    0.50000   0.56079   0.56055   0.00000  Uiso   1.00
Ni3    Ni    0.56079   0.50000   0.56055   0.00000  Uiso   1.00
Ni4    Ni    0.50000   0.43921   0.56055   0.00000  Uiso   1.00
Ni5    Ni    0.43921   0.50000   0.56055   0.00000  Uiso   1.00
Ni6    Ni    0.50000   0.56079   0.43945   0.00000  Uiso   1.00
Ni7    Ni    0.56079   0.50000   0.43945   0.00000  Uiso   1.00
Ni8    Ni    0.50000   0.43921   0.43945   0.00000  Uiso   1.00
Ni9    Ni    0.43921   0.50000   0.43945   0.00000  Uiso   1.00
Ni10   Ni    0.62159   0.50000   0.50000   0.00000  Uiso   1.00
Ni11   Ni    0.50000   0.62159   0.50000   0.00000  Uiso   1.00
Ni12   Ni    0.50000   0.37841   0.50000   0.00000  Uiso   1.00
Ni13   Ni    0.37841   0.50000   0.50000   0.00000  Uiso   1.00
Ni14   Ni    0.43921   0.56079   0.37941   0.00000  Uiso   1.00
Ni15   Ni    0.56079   0.56079   0.37941   0.00000  Uiso   1.00
Ni16   Ni    0.56079   0.43921   0.37941   0.00000  Uiso   1.00
Ni17   Ni    0.43921   0.43921   0.37941   0.00000  Uiso   1.00
Ni18   Ni    0.43921   0.56079   0.62059   0.00000  Uiso   1.00
Ni19   Ni    0.56079   0.56079   0.62059   0.00000  Uiso   1.00
Ni20   Ni    0.56079   0.43921   0.62059   0.00000  Uiso   1.00
Ni21   Ni    0.43921   0.43921   0.62059   0.00000  Uiso   1.00
Ni22   Ni    0.37841   0.56079   0.56055   0.00000  Uiso   1.00
Ni23   Ni    0.56079   0.37841   0.56055   0.00000  Uiso   1.00
Ni24   Ni    0.43921   0.62159   0.56055   0.00000  Uiso   1.00
Ni25   Ni    0.62159   0.56079   0.56055   0.00000  Uiso   1.00
Ni26   Ni    0.56079   0.62159   0.56055   0.00000  Uiso   1.00
Ni27   Ni    0.62159   0.43921   0.56055   0.00000  Uiso   1.00
Ni28   Ni    0.43921   0.37841   0.56055   0.00000  Uiso   1.00
Ni29   Ni    0.37841   0.43921   0.56055   0.00000  Uiso   1.00
Ni30   Ni    0.37841   0.56079   0.43945   0.00000  Uiso   1.00
Ni31   Ni    0.62159   0.56079   0.43945   0.00000  Uiso   1.00
Ni32   Ni    0.56079   0.37841   0.43945   0.00000  Uiso   1.00
Ni33   Ni    0.56079   0.62159   0.43945   0.00000  Uiso   1.00
Ni34   Ni    0.43921   0.62159   0.43945   0.00000  Uiso   1.00
Ni35   Ni    0.62159   0.43921   0.43945   0.00000  Uiso   1.00
Ni36   Ni    0.43921   0.37841   0.43945   0.00000  Uiso   1.00
Ni37   Ni    0.37841   0.43921   0.43945   0.00000  Uiso   1.00
Ni38   Ni    0.62159   0.37841   0.50000   0.00000  Uiso   1.00
Ni39   Ni    0.62159   0.62159   0.50000   0.00000  Uiso   1.00
Ni40   Ni    0.37841   0.62159   0.50000   0.00000  Uiso   1.00
Ni41   Ni    0.37841   0.37841   0.50000   0.00000  Uiso   1.00
Ni42   Ni    0.50000   0.56079   0.68162   0.00000  Uiso   1.00
Ni43   Ni    0.56079   0.50000   0.68162   0.00000  Uiso   1.00
Ni44   Ni    0.50000   0.43921   0.68162   0.00000  Uiso   1.00
Ni45   Ni    0.43921   0.50000   0.68162   0.00000  Uiso   1.00
Ni46   Ni    0.56079   0.50000   0.31838   0.00000  Uiso   1.00
Ni47   Ni    0.50000   0.56079   0.31838   0.00000  Uiso   1.00
Ni48   Ni    0.50000   0.43921   0.31838   0.00000  Uiso   1.00
Ni49   Ni    0.43921   0.50000   0.31838   0.00000  Uiso   1.00
Ni50   Ni    0.50000   0.31762   0.56055   0.00000  Uiso   1.00
Ni51   Ni    0.31762   0.50000   0.56055   0.00000  Uiso   1.00
Ni52   Ni    0.50000   0.68238   0.56055   0.00000  Uiso   1.00
Ni53   Ni    0.68238   0.50000   0.56055   0.00000  Uiso   1.00
Ni54   Ni    0.50000   0.31762   0.43945   0.00000  Uiso   1.00
Ni55   Ni    0.31762   0.50000   0.43945   0.00000  Uiso   1.00
Ni56   Ni    0.50000   0.68238   0.43945   0.00000  Uiso   1.00
Ni57   Ni    0.68238   0.50000   0.43945   0.00000  Uiso   1.00
Ni58   Ni    0.37841   0.56079   0.68162   0.00000  Uiso   1.00
Ni59   Ni    0.43921   0.62159   0.68162   0.00000  Uiso   1.00
Ni60   Ni    0.56079   0.62159   0.68162   0.00000  Uiso   1.00
Ni61   Ni    0.56079   0.37841   0.68162   0.00000  Uiso   1.00
Ni62   Ni    0.62159   0.56079   0.68162   0.00000  Uiso   1.00
Ni63   Ni    0.62159   0.43921   0.68162   0.00000  Uiso   1.00
Ni64   Ni    0.37841   0.43921   0.68162   0.00000  Uiso   1.00
Ni65   Ni    0.43921   0.37841   0.68162   0.00000  Uiso   1.00
Ni66   Ni    0.56079   0.37841   0.31838   0.00000  Uiso   1.00
Ni67   Ni    0.37841   0.56079   0.31838   0.00000  Uiso   1.00
Ni68   Ni    0.56079   0.62159   0.31838   0.00000  Uiso   1.00
Ni69   Ni    0.43921   0.62159   0.31838   0.00000  Uiso   1.00
Ni70   Ni    0.62159   0.43921   0.31838   0.00000  Uiso   1.00
Ni71   Ni    0.62159   0.56079   0.31838   0.00000  Uiso   1.00
Ni72   Ni    0.43921   0.37841   0.31838   0.00000  Uiso   1.00
Ni73   Ni    0.37841   0.43921   0.31838   0.00000  Uiso   1.00
Ni74   Ni    0.56079   0.31762   0.37941   0.00000  Uiso   1.00
Ni75   Ni    0.31762   0.56079   0.37941   0.00000  Uiso   1.00
Ni76   Ni    0.43921   0.31762   0.37941   0.00000  Uiso   1.00
Ni77   Ni    0.31762   0.43921   0.37941   0.00000  Uiso   1.00
Ni78   Ni    0.31762   0.56079   0.62059   0.00000  Uiso   1.00
Ni79   Ni    0.56079   0.31762   0.62059   0.00000  Uiso   1.00
Ni80   Ni    0.68238   0.56079   0.37941   0.00000  Uiso   1.00
Ni81   Ni    0.68238   0.43921   0.37941   0.00000  Uiso   1.00
Ni82   Ni    0.43921   0.68238   0.37941   0.00000  Uiso   1.00
Ni83   Ni    0.56079   0.68238   0.37941   0.00000  Uiso   1.00
Ni84   Ni    0.43921   0.31762   0.62059   0.00000  Uiso   1.00
Ni85   Ni    0.31762   0.43921   0.62059   0.00000  Uiso   1.00
Ni86   Ni    0.56079   0.68238   0.62059   0.00000  Uiso   1.00
Ni87   Ni    0.68238   0.56079   0.62059   0.00000  Uiso   1.00
Ni88   Ni    0.68238   0.43921   0.62059   0.00000  Uiso   1.00
Ni89   Ni    0.43921   0.68238   0.62059   0.00000  Uiso   1.00
Ni90   Ni    0.62159   0.31762   0.56055   0.00000  Uiso   1.00
Ni91   Ni    0.31762   0.62159   0.56055   0.00000  Uiso   1.00
Ni92   Ni    0.68238   0.37841   0.56055   0.00000  Uiso   1.00
Ni93   Ni    0.31762   0.37841   0.56055   0.00000  Uiso   1.00
Ni94   Ni    0.37841   0.31762   0.56055   0.00000  Uiso   1.00
Ni95   Ni    0.62159   0.68238   0.56055   0.00000  Uiso   1.00
Ni96   Ni    0.68238   0.62159   0.56055   0.00000  Uiso   1.00
Ni97   Ni    0.37841   0.68238   0.56055   0.00000  Uiso   1.00
Ni98   Ni    0.62159   0.31762   0.43945   0.00000  Uiso   1.00
Ni99   Ni    0.31762   0.62159   0.43945   0.00000  Uiso   1.00
Ni100  Ni    0.68238   0.37841   0.43945   0.00000  Uiso   1.00
Ni101  Ni    0.37841   0.31762   0.43945   0.00000  Uiso   1.00
Ni102  Ni    0.31762   0.37841   0.43945   0.00000  Uiso   1.00
Ni103  Ni    0.68238   0.62159   0.43945   0.00000  Uiso   1.00
Ni104  Ni    0.62159   0.68238   0.43945   0.00000  Uiso   1.00
Ni105  Ni    0.37841   0.68238   0.43945   0.00000  Uiso   1.00
Ni106  Ni    0.50000   0.25683   0.50000   0.00000  Uiso   1.00
Ni107  Ni    0.25683   0.50000   0.50000   0.00000  Uiso   1.00
Ni108  Ni    0.50000   0.74317   0.50000   0.00000  Uiso   1.00
Ni109  Ni    0.74317   0.50000   0.50000   0.00000  Uiso   1.00
Ni110  Ni    0.50000   0.31762   0.68162   0.00000  Uiso   1.00
Ni111  Ni    0.31762   0.50000   0.68162   0.00000  Uiso   1.00
Ni112  Ni    0.68238   0.50000   0.68162   0.00000  Uiso   1.00
Ni113  Ni    0.50000   0.68238   0.68162   0.00000  Uiso   1.00
Ni114  Ni    0.50000   0.31762   0.31838   0.00000  Uiso   1.00
Ni115  Ni    0.31762   0.50000   0.31838   0.00000  Uiso   1.00
Ni116  Ni    0.68238   0.50000   0.31838   0.00000  Uiso   1.00
Ni117  Ni    0.50000   0.68238   0.31838   0.00000  Uiso   1.00
Ni118  Ni    0.43921   0.56079   0.25735   0.00000  Uiso   1.00
Ni119  Ni    0.56079   0.56079   0.25735   0.00000  Uiso   1.00
Ni120  Ni    0.56079   0.43921   0.25735   0.00000  Uiso   1.00
Ni121  Ni    0.43921   0.43921   0.25735   0.00000  Uiso   1.00
Ni122  Ni    0.43921   0.56079   0.74265   0.00000  Uiso   1.00
Ni123  Ni    0.56079   0.56079   0.74265   0.00000  Uiso   1.00
Ni124  Ni    0.56079   0.43921   0.74265   0.00000  Uiso   1.00
Ni125  Ni    0.43921   0.43921   0.74265   0.00000  Uiso   1.00
Ni126  Ni    0.25683   0.56079   0.56055   0.00000  Uiso   1.00
Ni127  Ni    0.56079   0.25683   0.56055   0.00000  Uiso   1.00
Ni128  Ni    0.43921   0.25683   0.56055   0.00000  Uiso   1.00
Ni129  Ni    0.25683   0.43921   0.56055   0.00000  Uiso   1.00
Ni130  Ni    0.74317   0.56079   0.56055   0.00000  Uiso   1.00
Ni131  Ni    0.74317   0.43921   0.56055   0.00000  Uiso   1.00
Ni132  Ni    0.43921   0.74317   0.56055   0.00000  Uiso   1.00
Ni133  Ni    0.56079   0.74317   0.56055   0.00000  Uiso   1.00
Ni134  Ni    0.25683   0.56079   0.43945   0.00000  Uiso   1.00
Ni135  Ni    0.56079   0.25683   0.43945   0.00000  Uiso   1.00
Ni136  Ni    0.25683   0.43921   0.43945   0.00000  Uiso   1.00
Ni137  Ni    0.43921   0.25683   0.43945   0.00000  Uiso   1.00
Ni138  Ni    0.56079   0.74317   0.43945   0.00000  Uiso   1.00
Ni139  Ni    0.74317   0.56079   0.43945   0.00000  Uiso   1.00
Ni140  Ni    0.74317   0.43921   0.43945   0.00000  Uiso   1.00
Ni141  Ni    0.43921   0.74317   0.43945   0.00000  Uiso   1.00
Ni142  Ni    0.74317   0.37841   0.50000   0.00000  Uiso   1.00
Ni143  Ni    0.62159   0.25683   0.50000   0.00000  Uiso   1.00
Ni144  Ni    0.25683   0.62159   0.50000   0.00000  Uiso   1.00
Ni145  Ni    0.74317   0.62159   0.50000   0.00000  Uiso   1.00
Ni146  Ni    0.37841   0.25683   0.50000   0.00000  Uiso   1.00
Ni147  Ni    0.62159   0.74317   0.50000   0.00000  Uiso   1.00
Ni148  Ni    0.25683   0.37841   0.50000   0.00000  Uiso   1.00
Ni149  Ni    0.37841   0.74317   0.50000   0.00000  Uiso   1.00
Ni150  Ni    0.62159   0.31762   0.68162   0.00000  Uiso   1.00
Ni151  Ni    0.31762   0.62159   0.68162   0.00000  Uiso   1.00
Ni152  Ni    0.68238   0.37841   0.68162   0.00000  Uiso   1.00
Ni153  Ni    0.37841   0.31762   0.68162   0.00000  Uiso   1.00
Ni154  Ni    0.31762   0.37841   0.68162   0.00000  Uiso   1.00
Ni155  Ni    0.68238   0.62159   0.68162   0.00000  Uiso   1.00
Ni156  Ni    0.62159   0.68238   0.68162   0.00000  Uiso   1.00
Ni157  Ni    0.37841   0.68238   0.68162   0.00000  Uiso   1.00
Ni158  Ni    0.62159   0.31762   0.31838   0.00000  Uiso   1.00
Ni159  Ni    0.37841   0.31762   0.31838   0.00000  Uiso   1.00
Ni160  Ni    0.31762   0.62159   0.31838   0.00000  Uiso   1.00
Ni161  Ni    0.68238   0.37841   0.31838   0.00000  Uiso   1.00
Ni162  Ni    0.31762   0.37841   0.31838   0.00000  Uiso   1.00
Ni163  Ni    0.37841   0.68238   0.31838   0.00000  Uiso   1.00
Ni164  Ni    0.68238   0.62159   0.31838   0.00000  Uiso   1.00
Ni165  Ni    0.62159   0.68238   0.31838   0.00000  Uiso   1.00
Ni166  Ni    0.31762   0.31762   0.37941   0.00000  Uiso   1.00
Ni167  Ni    0.68238   0.31762   0.37941   0.00000  Uiso   1.00
Ni168  Ni    0.31762   0.68238   0.37941   0.00000  Uiso   1.00
Ni169  Ni    0.31762   0.31762   0.62059   0.00000  Uiso   1.00
Ni170  Ni    0.68238   0.68238   0.37941   0.00000  Uiso   1.00
Ni171  Ni    0.68238   0.31762   0.62059   0.00000  Uiso   1.00
Ni172  Ni    0.31762   0.68238   0.62059   0.00000  Uiso   1.00
Ni173  Ni    0.68238   0.68238   0.62059   0.00000  Uiso   1.00
Ni174  Ni    0.43921   0.50000   0.80269   0.00000  Uiso   1.00
Ni175  Ni    0.50000   0.56079   0.80269   0.00000  Uiso   1.00
Ni176  Ni    0.50000   0.43921   0.80269   0.00000  Uiso   1.00
Ni177  Ni    0.56079   0.50000   0.80269   0.00000  Uiso   1.00
Ni178  Ni    0.43921   0.50000   0.19731   0.00000  Uiso   1.00
Ni179  Ni    0.56079   0.50000   0.19731   0.00000  Uiso   1.00
Ni180  Ni    0.50000   0.43921   0.19731   0.00000  Uiso   1.00
Ni181  Ni    0.50000   0.56079   0.19731   0.00000  Uiso   1.00
Ni182  Ni    0.56079   0.25683   0.68162   0.00000  Uiso   1.00
Ni183  Ni    0.25683   0.56079   0.68162   0.00000  Uiso   1.00
Ni184  Ni    0.25683   0.43921   0.68162   0.00000  Uiso   1.00
Ni185  Ni    0.43921   0.25683   0.68162   0.00000  Uiso   1.00
Ni186  Ni    0.56079   0.74317   0.68162   0.00000  Uiso   1.00
Ni187  Ni    0.43921   0.74317   0.68162   0.00000  Uiso   1.00
Ni188  Ni    0.74317   0.43921   0.68162   0.00000  Uiso   1.00
Ni189  Ni    0.74317   0.56079   0.68162   0.00000  Uiso   1.00
Ni190  Ni    0.56079   0.25683   0.31838   0.00000  Uiso   1.00
Ni191  Ni    0.25683   0.56079   0.31838   0.00000  Uiso   1.00
Ni192  Ni    0.25683   0.43921   0.31838   0.00000  Uiso   1.00
Ni193  Ni    0.43921   0.25683   0.31838   0.00000  Uiso   1.00
Ni194  Ni    0.56079   0.74317   0.31838   0.00000  Uiso   1.00
Ni195  Ni    0.74317   0.56079   0.31838   0.00000  Uiso   1.00
Ni196  Ni    0.43921   0.74317   0.31838   0.00000  Uiso   1.00
Ni197  Ni    0.74317   0.43921   0.31838   0.00000  Uiso   1.00
Ni198  Ni    0.31762   0.56079   0.25735   0.00000  Uiso   1.00
Ni199  Ni    0.56079   0.31762   0.25735   0.00000  Uiso   1.00
Ni200  Ni    0.31762   0.43921   0.25735   0.00000  Uiso   1.00
Ni201  Ni    0.43921   0.31762   0.25735   0.00000  Uiso   1.00
Ni202  Ni    0.56079   0.68238   0.25735   0.00000  Uiso   1.00
Ni203  Ni    0.68238   0.43921   0.25735   0.00000  Uiso   1.00
Ni204  Ni    0.68238   0.56079   0.25735   0.00000  Uiso   1.00
Ni205  Ni    0.43921   0.68238   0.25735   0.00000  Uiso   1.00
Ni206  Ni    0.56079   0.31762   0.74265   0.00000  Uiso   1.00
Ni207  Ni    0.31762   0.56079   0.74265   0.00000  Uiso   1.00
Ni208  Ni    0.43921   0.31762   0.74265   0.00000  Uiso   1.00
Ni209  Ni    0.31762   0.43921   0.74265   0.00000  Uiso   1.00
Ni210  Ni    0.68238   0.56079   0.74265   0.00000  Uiso   1.00
Ni211  Ni    0.56079   0.68238   0.74265   0.00000  Uiso   1.00
Ni212  Ni    0.43921   0.68238   0.74265   0.00000  Uiso   1.00
Ni213  Ni    0.68238   0.43921   0.74265   0.00000  Uiso   1.00
Ni214  Ni    0.80396   0.50000   0.56055   0.00000  Uiso   1.00
Ni215  Ni    0.50000   0.19604   0.56055   0.00000  Uiso   1.00
Ni216  Ni    0.50000   0.80396   0.56055   0.00000  Uiso   1.00
Ni217  Ni    0.68238   0.25683   0.56055   0.00000  Uiso   1.00
Ni218  Ni    0.31762   0.25683   0.56055   0.00000  Uiso   1.00
Ni219  Ni    0.74317   0.31762   0.56055   0.00000  Uiso   1.00
Ni220  Ni    0.19604   0.50000   0.56055   0.00000  Uiso   1.00
Ni221  Ni    0.25683   0.31762   0.56055   0.00000  Uiso   1.00
Ni222  Ni    0.31762   0.74317   0.56055   0.00000  Uiso   1.00
Ni223  Ni    0.25683   0.68238   0.56055   0.00000  Uiso   1.00
Ni224  Ni    0.74317   0.68238   0.56055   0.00000  Uiso   1.00
Ni225  Ni    0.68238   0.74317   0.56055   0.00000  Uiso   1.00
Ni226  Ni    0.68238   0.25683   0.43945   0.00000  Uiso   1.00
Ni227  Ni    0.80396   0.50000   0.43945   0.00000  Uiso   1.00
Ni228  Ni    0.50000   0.19604   0.43945   0.00000  Uiso   1.00
Ni229  Ni    0.50000   0.80396   0.43945   0.00000  Uiso   1.00
Ni230  Ni    0.74317   0.31762   0.43945   0.00000  Uiso   1.00
Ni231  Ni    0.19604   0.50000   0.43945   0.00000  Uiso   1.00
Ni232  Ni    0.25683   0.68238   0.43945   0.00000  Uiso   1.00
Ni233  Ni    0.31762   0.25683   0.43945   0.00000  Uiso   1.00
Ni234  Ni    0.25683   0.31762   0.43945   0.00000  Uiso   1.00
Ni235  Ni    0.31762   0.74317   0.43945   0.00000  Uiso   1.00
Ni236  Ni    0.74317   0.68238   0.43945   0.00000  Uiso   1.00
Ni237  Ni    0.68238   0.74317   0.43945   0.00000  Uiso   1.00
Ni238  Ni    0.37841   0.56079   0.80269   0.00000  Uiso   1.00
Ni239  Ni    0.56079   0.62159   0.80269   0.00000  Uiso   1.00
Ni240  Ni    0.43921   0.62159   0.80269   0.00000  Uiso   1.00
Ni241  Ni    0.62159   0.56079   0.80269   0.00000  Uiso   1.00
Ni242  Ni    0.62159   0.43921   0.80269   0.00000  Uiso   1.00
Ni243  Ni    0.56079   0.37841   0.80269   0.00000  Uiso   1.00
Ni244  Ni    0.37841   0.43921   0.80269   0.00000  Uiso   1.00
Ni245  Ni    0.43921   0.37841   0.80269   0.00000  Uiso   1.00
Ni246  Ni    0.37841   0.56079   0.19731   0.00000  Uiso   1.00
Ni247  Ni    0.62159   0.43921   0.19731   0.00000  Uiso   1.00
Ni248  Ni    0.43921   0.62159   0.19731   0.00000  Uiso   1.00
Ni249  Ni    0.43921   0.37841   0.19731   0.00000  Uiso   1.00
Ni250  Ni    0.56079   0.37841   0.19731   0.00000  Uiso   1.00
Ni251  Ni    0.56079   0.62159   0.19731   0.00000  Uiso   1.00
Ni252  Ni    0.62159   0.56079   0.19731   0.00000  Uiso   1.00
Ni253  Ni    0.37841   0.43921   0.19731   0.00000  Uiso   1.00
Ni254  Ni    0.56079   0.19604   0.37941   0.00000  Uiso   1.00
Ni255  Ni    0.19604   0.43921   0.37941   0.00000  Uiso   1.00
Ni256  Ni    0.43921   0.80396   0.37941   0.00000  Uiso   1.00
Ni257  Ni    0.80396   0.43921   0.37941   0.00000  Uiso   1.00
Ni258  Ni    0.80396   0.56079   0.37941   0.00000  Uiso   1.00
Ni259  Ni    0.43921   0.19604   0.37941   0.00000  Uiso   1.00
Ni260  Ni    0.56079   0.80396   0.37941   0.00000  Uiso   1.00
Ni261  Ni    0.56079   0.19604   0.62059   0.00000  Uiso   1.00
Ni262  Ni    0.19604   0.56079   0.37941   0.00000  Uiso   1.00
Ni263  Ni    0.56079   0.80396   0.62059   0.00000  Uiso   1.00
Ni264  Ni    0.80396   0.56079   0.62059   0.00000  Uiso   1.00
Ni265  Ni    0.43921   0.80396   0.62059   0.00000  Uiso   1.00
Ni266  Ni    0.19604   0.56079   0.62059   0.00000  Uiso   1.00
Ni267  Ni    0.43921   0.19604   0.62059   0.00000  Uiso   1.00
Ni268  Ni    0.19604   0.43921   0.62059   0.00000  Uiso   1.00
Ni269  Ni    0.80396   0.43921   0.62059   0.00000  Uiso   1.00
Ni270  Ni    0.80396   0.37841   0.56055   0.00000  Uiso   1.00
Ni271  Ni    0.62159   0.19604   0.56055   0.00000  Uiso   1.00
Ni272  Ni    0.37841   0.80396   0.56055   0.00000  Uiso   1.00
Ni273  Ni    0.37841   0.19604   0.56055   0.00000  Uiso   1.00
Ni274  Ni    0.19604   0.62159   0.56055   0.00000  Uiso   1.00
Ni275  Ni    0.80396   0.62159   0.56055   0.00000  Uiso   1.00
Ni276  Ni    0.62159   0.80396   0.56055   0.00000  Uiso   1.00
Ni277  Ni    0.19604   0.37841   0.56055   0.00000  Uiso   1.00
Ni278  Ni    0.80396   0.37841   0.43945   0.00000  Uiso   1.00
Ni279  Ni    0.62159   0.19604   0.43945   0.00000  Uiso   1.00
Ni280  Ni    0.37841   0.80396   0.43945   0.00000  Uiso   1.00
Ni281  Ni    0.80396   0.62159   0.43945   0.00000  Uiso   1.00
Ni282  Ni    0.19604   0.62159   0.43945   0.00000  Uiso   1.00
Ni283  Ni    0.62159   0.80396   0.43945   0.00000  Uiso   1.00
Ni284  Ni    0.37841   0.19604   0.43945   0.00000  Uiso   1.00
Ni285  Ni    0.19604   0.37841   0.43945   0.00000  Uiso   1.00
Pt1    Pt    0.56079   0.56079   0.50000   0.00000  Uiso   1.00
Pt2    Pt    0.43921   0.56079   0.50000   0.00000  Uiso   1.00
Pt3    Pt    0.56079   0.43921   0.50000   0.00000  Uiso   1.00
Pt4    Pt    0.43921   0.43921   0.50000   0.00000  Uiso   1.00
Pt5    Pt    0.50000   0.50000   0.37874   0.00000  Uiso   1.00
Pt6    Pt    0.50000   0.50000   0.62126   0.00000  Uiso   1.00
Pt7    Pt    0.62159   0.50000   0.37874   0.00000  Uiso   1.00
Pt8    Pt    0.50000   0.62159   0.37874   0.00000  Uiso   1.00
Pt9    Pt    0.50000   0.62159   0.62126   0.00000  Uiso   1.00
Pt10   Pt    0.62159   0.50000   0.62126   0.00000  Uiso   1.00
Pt11   Pt    0.50000   0.37841   0.37874   0.00000  Uiso   1.00
Pt12   Pt    0.37841   0.50000   0.37874   0.00000  Uiso   1.00
Pt13   Pt    0.50000   0.37841   0.62126   0.00000  Uiso   1.00
Pt14   Pt    0.37841   0.50000   0.62126   0.00000  Uiso   1.00
Pt15   Pt    0.31762   0.56079   0.50000   0.00000  Uiso   1.00
Pt16   Pt    0.56079   0.31762   0.50000   0.00000  Uiso   1.00
Pt17   Pt    0.43921   0.31762   0.50000   0.00000  Uiso   1.00
Pt18   Pt    0.31762   0.43921   0.50000   0.00000  Uiso   1.00
Pt19   Pt    0.68238   0.56079   0.50000   0.00000  Uiso   1.00
Pt20   Pt    0.56079   0.68238   0.50000   0.00000  Uiso   1.00
Pt21   Pt    0.68238   0.43921   0.50000   0.00000  Uiso   1.00
Pt22   Pt    0.43921   0.68238   0.50000   0.00000  Uiso   1.00
Pt23   Pt    0.62159   0.62159   0.37874   0.00000  Uiso   1.00
Pt24   Pt    0.62159   0.62159   0.62126   0.00000  Uiso   1.00
Pt25   Pt    0.62159   0.37841   0.37874   0.00000  Uiso   1.00
Pt26   Pt    0.37841   0.62159   0.37874   0.00000  Uiso   1.00
Pt27   Pt    0.62159   0.37841   0.62126   0.00000  Uiso   1.00
Pt28   Pt    0.37841   0.62159   0.62126   0.00000  Uiso   1.00
Pt29   Pt    0.37841   0.37841   0.37874   0.00000  Uiso   1.00
Pt30   Pt    0.37841   0.37841   0.62126   0.00000  Uiso   1.00
Pt31   Pt    0.50000   0.50000   0.25803   0.00000  Uiso   1.00
Pt32   Pt    0.50000   0.50000   0.74197   0.00000  Uiso   1.00
Pt33   Pt    0.68238   0.31762   0.50000   0.00000  Uiso   1.00
Pt34   Pt    0.31762   0.31762   0.50000   0.00000  Uiso   1.00
Pt35   Pt    0.31762   0.68238   0.50000   0.00000  Uiso   1.00
Pt36   Pt    0.68238   0.68238   0.50000   0.00000  Uiso   1.00
Pt37   Pt    0.50000   0.62159   0.25803   0.00000  Uiso   1.00
Pt38   Pt    0.62159   0.50000   0.25803   0.00000  Uiso   1.00
Pt39   Pt    0.62159   0.50000   0.74197   0.00000  Uiso   1.00
Pt40   Pt    0.50000   0.62159   0.74197   0.00000  Uiso   1.00
Pt41   Pt    0.50000   0.37841   0.25803   0.00000  Uiso   1.00
Pt42   Pt    0.37841   0.50000   0.25803   0.00000  Uiso   1.00
Pt43   Pt    0.50000   0.37841   0.74197   0.00000  Uiso   1.00
Pt44   Pt    0.37841   0.50000   0.74197   0.00000  Uiso   1.00
Pt45   Pt    0.74317   0.50000   0.37874   0.00000  Uiso   1.00
Pt46   Pt    0.50000   0.74317   0.37874   0.00000  Uiso   1.00
Pt47   Pt    0.74317   0.50000   0.62126   0.00000  Uiso   1.00
Pt48   Pt    0.50000   0.74317   0.62126   0.00000  Uiso   1.00
Pt49   Pt    0.50000   0.25683   0.37874   0.00000  Uiso   1.00
Pt50   Pt    0.25683   0.50000   0.37874   0.00000  Uiso   1.00
Pt51   Pt    0.25683   0.50000   0.62126   0.00000  Uiso   1.00
Pt52   Pt    0.50000   0.25683   0.62126   0.00000  Uiso   1.00
Pt53   Pt    0.62159   0.62159   0.25803   0.00000  Uiso   1.00
Pt54   Pt    0.62159   0.62159   0.74197   0.00000  Uiso   1.00
Pt55   Pt    0.62159   0.37841   0.25803   0.00000  Uiso   1.00
Pt56   Pt    0.37841   0.62159   0.25803   0.00000  Uiso   1.00
Pt57   Pt    0.62159   0.37841   0.74197   0.00000  Uiso   1.00
Pt58   Pt    0.37841   0.62159   0.74197   0.00000  Uiso   1.00
Pt59   Pt    0.37841   0.37841   0.25803   0.00000  Uiso   1.00
Pt60   Pt    0.37841   0.37841   0.74197   0.00000  Uiso   1.00
Pt61   Pt    0.74317   0.62159   0.37874   0.00000  Uiso   1.00
Pt62   Pt    0.62159   0.74317   0.37874   0.00000  Uiso   1.00
Pt63   Pt    0.74317   0.62159   0.62126   0.00000  Uiso   1.00
Pt64   Pt    0.62159   0.74317   0.62126   0.00000  Uiso   1.00
Pt65   Pt    0.74317   0.37841   0.37874   0.00000  Uiso   1.00
Pt66   Pt    0.37841   0.74317   0.37874   0.00000  Uiso   1.00
Pt67   Pt    0.74317   0.37841   0.62126   0.00000  Uiso   1.00
Pt68   Pt    0.37841   0.74317   0.62126   0.00000  Uiso   1.00
Pt69   Pt    0.25683   0.62159   0.37874   0.00000  Uiso   1.00
Pt70   Pt    0.62159   0.25683   0.37874   0.00000  Uiso   1.00
Pt71   Pt    0.62159   0.25683   0.62126   0.00000  Uiso   1.00
Pt72   Pt    0.25683   0.62159   0.62126   0.00000  Uiso   1.00
Pt73   Pt    0.25683   0.37841   0.37874   0.00000  Uiso   1.00
Pt74   Pt    0.37841   0.25683   0.37874   0.00000  Uiso   1.00
Pt75   Pt    0.25683   0.37841   0.62126   0.00000  Uiso   1.00
Pt76   Pt    0.37841   0.25683   0.62126   0.00000  Uiso   1.00
Pt77   Pt    0.56079   0.19604   0.50000   0.00000  Uiso   1.00
Pt78   Pt    0.43921   0.80396   0.50000   0.00000  Uiso   1.00
Pt79   Pt    0.43921   0.19604   0.50000   0.00000  Uiso   1.00
Pt80   Pt    0.56079   0.80396   0.50000   0.00000  Uiso   1.00
Pt81   Pt    0.19604   0.43921   0.50000   0.00000  Uiso   1.00
Pt82   Pt    0.80396   0.43921   0.50000   0.00000  Uiso   1.00
Pt83   Pt    0.80396   0.56079   0.50000   0.00000  Uiso   1.00
Pt84   Pt    0.19604   0.56079   0.50000   0.00000  Uiso   1.00
