# generated using pymatgen
data_H(Pt61Au22)3
_symmetry_space_group_name_H-M   'P 1'
_cell_length_a   30.00000000
_cell_length_b   30.00000000
_cell_length_c   30.00000000
_cell_angle_alpha   90.00000000
_cell_angle_beta   90.00000000
_cell_angle_gamma   90.00000000
_symmetry_Int_Tables_number   1
_chemical_formula_structural   H(Pt61Au22)3
_chemical_formula_sum   'H1 Pt183 Au66'
_cell_volume   27000.00000000
_cell_formula_units_Z   1
loop_
 _symmetry_equiv_pos_site_id
 _symmetry_equiv_pos_as_xyz
  1  'x, y, z'
loop_
 _atom_site_type_symbol
 _atom_site_label
 _atom_site_symmetry_multiplicity
 _atom_site_fract_x
 _atom_site_fract_y
 _atom_site_fract_z
 _atom_site_occupancy
  H  H0  1  0.18362556  0.43197996  0.56938863  1
  Pt  Pt1  1  0.49996656  0.49994172  0.49997668  1
  Pt  Pt2  1  0.43382748  0.43377338  0.49999531  1
  Pt  Pt3  1  0.56631984  0.43414565  0.49994273  1
  Pt  Pt4  1  0.43400570  0.56618155  0.50015746  1
  Pt  Pt5  1  0.56587748  0.56600514  0.49994738  1
  Pt  Pt6  1  0.49978655  0.43467156  0.56567380  1
  Pt  Pt7  1  0.43479674  0.49981084  0.56575347  1
  Pt  Pt8  1  0.49995132  0.43463855  0.43414934  1
  Pt  Pt9  1  0.43448017  0.49968011  0.43432801  1
  Pt  Pt10  1  0.50002328  0.56520054  0.56590641  1
  Pt  Pt11  1  0.56517398  0.50008271  0.56591876  1
  Pt  Pt12  1  0.56504434  0.50007055  0.43399820  1
  Pt  Pt13  1  0.49970201  0.56501061  0.43410592  1
  Pt  Pt14  1  0.63006400  0.50014137  0.49999520  1
  Pt  Pt15  1  0.49999641  0.63011980  0.49994263  1
  Pt  Pt16  1  0.50031282  0.37009229  0.49994907  1
  Pt  Pt17  1  0.36981619  0.49983356  0.50037507  1
  Pt  Pt18  1  0.49960451  0.49972127  0.36929437  1
  Pt  Pt19  1  0.49982095  0.49972238  0.63067188  1
  Pt  Pt20  1  0.63031346  0.43439205  0.56723849  1
  Pt  Pt21  1  0.43472648  0.63086905  0.56728883  1
  Pt  Pt22  1  0.43423832  0.63026691  0.43279238  1
  Pt  Pt23  1  0.63029620  0.43440467  0.43274131  1
  Pt  Pt24  1  0.63028872  0.56569460  0.56738047  1
  Pt  Pt25  1  0.56561040  0.63020610  0.56741568  1
  Pt  Pt26  1  0.43434622  0.36918176  0.56626440  1
  Pt  Pt27  1  0.36945813  0.43400712  0.56654477  1
  Pt  Pt28  1  0.63014609  0.56564893  0.43255919  1
  Pt  Pt29  1  0.56549910  0.63016761  0.43253320  1
  Pt  Pt30  1  0.43430257  0.36939556  0.43370205  1
  Pt  Pt31  1  0.36955728  0.43419611  0.43346516  1
  Pt  Pt32  1  0.56560874  0.36976123  0.56741892  1
  Pt  Pt33  1  0.37017105  0.56600447  0.56741539  1
  Pt  Pt34  1  0.56571331  0.36967710  0.43248197  1
  Pt  Pt35  1  0.36961541  0.56543369  0.43288783  1
  Pt  Pt36  1  0.43420683  0.43384058  0.36764129  1
  Pt  Pt37  1  0.43414378  0.56559186  0.36770340  1
  Pt  Pt38  1  0.56563470  0.43437216  0.36756618  1
  Pt  Pt39  1  0.56545081  0.56559297  0.36747074  1
  Pt  Pt40  1  0.43403654  0.43400972  0.63205895  1
  Pt  Pt41  1  0.43439837  0.56564114  0.63220165  1
  Pt  Pt42  1  0.56568322  0.43436305  0.63231547  1
  Pt  Pt43  1  0.56556796  0.56559440  0.63257019  1
  Pt  Pt44  1  0.63046167  0.63045940  0.49994966  1
  Pt  Pt45  1  0.63047261  0.36949627  0.49994481  1
  Pt  Pt46  1  0.36948204  0.63046480  0.50010897  1
  Pt  Pt47  1  0.36851063  0.36910683  0.50014309  1
  Pt  Pt48  1  0.63055796  0.50008757  0.36720158  1
  Pt  Pt49  1  0.49987521  0.63051022  0.36724243  1
  Pt  Pt50  1  0.63064442  0.50016075  0.63276628  1
  Pt  Pt51  1  0.50015508  0.63066976  0.63289161  1
  Pt  Pt52  1  0.49982806  0.36946610  0.36741126  1
  Pt  Pt53  1  0.36951504  0.49960910  0.36758598  1
  Pt  Pt54  1  0.49968737  0.36949993  0.63249806  1
  Pt  Pt55  1  0.36936465  0.49961808  0.63193005  1
  Pt  Pt56  1  0.43420286  0.30588940  0.49998263  1
  Pt  Pt57  1  0.30506551  0.43434696  0.50111236  1
  Pt  Pt58  1  0.56444092  0.30831434  0.49999468  1
  Pt  Pt59  1  0.30826786  0.56411223  0.50049926  1
  Pt  Pt60  1  0.43578571  0.69210728  0.49984975  1
  Pt  Pt61  1  0.69196462  0.43584620  0.50000731  1
  Pt  Pt62  1  0.56422482  0.69193441  0.49987290  1
  Pt  Pt63  1  0.69200170  0.56426301  0.49989872  1
  Pt  Pt64  1  0.50004812  0.30549948  0.56755311  1
  Pt  Pt65  1  0.30467493  0.49889538  0.56735202  1
  Pt  Pt66  1  0.50001602  0.30553740  0.43245505  1
  Pt  Pt67  1  0.30559592  0.49971451  0.43279208  1
  Pt  Pt68  1  0.69469084  0.50019533  0.56799337  1
  Pt  Pt69  1  0.50027784  0.69473959  0.56802259  1
  Pt  Pt70  1  0.50011929  0.69466452  0.43190660  1
  Pt  Pt71  1  0.69463641  0.50015452  0.43194417  1
  Pt  Pt72  1  0.49984181  0.43376080  0.69629624  1
  Pt  Pt73  1  0.43368168  0.49993700  0.69625070  1
  Pt  Pt74  1  0.49991298  0.56599302  0.69642547  1
  Pt  Pt75  1  0.56612101  0.49994454  0.69637256  1
  Pt  Pt76  1  0.49998547  0.43374373  0.30353263  1
  Pt  Pt77  1  0.43373967  0.49998662  0.30362554  1
  Pt  Pt78  1  0.49985744  0.56611895  0.30356545  1
  Pt  Pt79  1  0.56608317  0.50012654  0.30360267  1
  Pt  Pt80  1  0.63174189  0.63167723  0.36675460  1
  Pt  Pt81  1  0.63166948  0.63164582  0.63331952  1
  Pt  Pt82  1  0.63173324  0.36827805  0.36673157  1
  Pt  Pt83  1  0.36839258  0.63177194  0.36677233  1
  Pt  Pt84  1  0.63173841  0.36835888  0.63322237  1
  Pt  Pt85  1  0.36839056  0.63180453  0.63312576  1
  Pt  Pt86  1  0.36855588  0.36855602  0.36716036  1
  Pt  Pt87  1  0.36852208  0.36855594  0.63273369  1
  Pt  Pt88  1  0.63349079  0.30240026  0.56915691  1
  Pt  Pt89  1  0.30234932  0.63370616  0.56908283  1
  Pt  Pt90  1  0.63362877  0.30224912  0.43079439  1
  Pt  Pt91  1  0.30249894  0.63341713  0.43088732  1
  Pt  Pt92  1  0.36718979  0.30236599  0.56690617  1
  Pt  Pt93  1  0.30233194  0.36721460  0.56699332  1
  Pt  Pt94  1  0.36684534  0.30282954  0.43332313  1
  Pt  Pt95  1  0.30254593  0.36752946  0.43330473  1
  Pt  Pt96  1  0.63324630  0.69752658  0.56910343  1
  Pt  Pt97  1  0.69759927  0.63341627  0.56914862  1
  Pt  Pt98  1  0.63336265  0.69752710  0.43081756  1
  Pt  Pt99  1  0.69766474  0.63345997  0.43081376  1
  Pt  Pt100  1  0.69779414  0.36667063  0.56916241  1
  Pt  Pt101  1  0.36657724  0.69790124  0.56912731  1
  Pt  Pt102  1  0.69773323  0.36670196  0.43081672  1
  Pt  Pt103  1  0.36669968  0.69771920  0.43079595  1
  Pt  Pt104  1  0.43454098  0.30273609  0.36576770  1
  Pt  Pt105  1  0.30257868  0.43458470  0.36569495  1
  Pt  Pt106  1  0.56568069  0.30294131  0.36504334  1
  Pt  Pt107  1  0.30315033  0.56568847  0.36523303  1
  Pt  Pt108  1  0.43455634  0.30255957  0.63429337  1
  Pt  Pt109  1  0.30262953  0.43438656  0.63392936  1
  Pt  Pt110  1  0.43462609  0.69746134  0.36533911  1
  Pt  Pt111  1  0.69738598  0.43465665  0.36538149  1
  Pt  Pt112  1  0.56565285  0.30300913  0.63487290  1
  Pt  Pt113  1  0.30321987  0.56552857  0.63418516  1
  Pt  Pt114  1  0.69751396  0.56561392  0.36524124  1
  Pt  Pt115  1  0.56552902  0.69747239  0.36519765  1
  Pt  Pt116  1  0.69740090  0.43467770  0.63457820  1
  Pt  Pt117  1  0.43473446  0.69760192  0.63470689  1
  Pt  Pt118  1  0.69756050  0.56554591  0.63486511  1
  Pt  Pt119  1  0.56558429  0.69757665  0.63497977  1
  Pt  Pt120  1  0.63348720  0.43454891  0.69939092  1
  Pt  Pt121  1  0.43457652  0.63337015  0.69929423  1
  Pt  Pt122  1  0.56571731  0.63333798  0.69961212  1
  Pt  Pt123  1  0.63340839  0.56569632  0.69963880  1
  Pt  Pt124  1  0.43434716  0.36646366  0.69936673  1
  Pt  Pt125  1  0.36693194  0.43428392  0.69946841  1
  Pt  Pt126  1  0.63331085  0.43455073  0.30064749  1
  Pt  Pt127  1  0.43449329  0.63347549  0.30055090  1
  Pt  Pt128  1  0.56583844  0.36697200  0.69967763  1
  Pt  Pt129  1  0.36689996  0.56566815  0.69929814  1
  Pt  Pt130  1  0.63335551  0.56576598  0.30048251  1
  Pt  Pt131  1  0.56567090  0.63330603  0.30051034  1
  Pt  Pt132  1  0.43441260  0.36645081  0.30048398  1
  Pt  Pt133  1  0.36657606  0.43434603  0.30068632  1
  Pt  Pt134  1  0.56589508  0.36683418  0.30019386  1
  Pt  Pt135  1  0.36698271  0.56594522  0.30030788  1
  Pt  Pt136  1  0.50027634  0.75869736  0.49986595  1
  Pt  Pt137  1  0.75864713  0.50017054  0.49999651  1
  Pt  Pt138  1  0.50117906  0.24123052  0.50002108  1
  Pt  Pt139  1  0.24083663  0.50112638  0.49998102  1
  Pt  Pt140  1  0.49989893  0.50003841  0.23897664  1
  Pt  Pt141  1  0.49993234  0.49975414  0.76099334  1
  Pt  Pt142  1  0.30544736  0.30578250  0.50025559  1
  Pt  Pt143  1  0.69357881  0.30657385  0.50006509  1
  Pt  Pt144  1  0.30658817  0.69358542  0.49988696  1
  Pt  Pt145  1  0.69357234  0.69362739  0.50001165  1
  Pt  Pt146  1  0.75954572  0.43534090  0.56440242  1
  Pt  Pt147  1  0.43547535  0.75945230  0.56435600  1
  Pt  Pt148  1  0.75945426  0.43535252  0.43551940  1
  Pt  Pt149  1  0.43532924  0.75959414  0.43554223  1
  Pt  Pt150  1  0.56486771  0.75956859  0.56457858  1
  Pt  Pt151  1  0.75960973  0.56500643  0.56459938  1
  Pt  Pt152  1  0.75964894  0.56495222  0.43538991  1
  Pt  Pt153  1  0.56497358  0.75969661  0.43536059  1
  Pt  Pt154  1  0.43657085  0.24067709  0.56477978  1
  Pt  Pt155  1  0.23532565  0.43664508  0.56469809  1
  Pt  Pt156  1  0.24057522  0.43660380  0.43496099  1
  Pt  Pt157  1  0.43648886  0.24078059  0.43534729  1
  Pt  Pt158  1  0.56497809  0.24067719  0.56480630  1
  Pt  Pt159  1  0.24064353  0.56513097  0.56472370  1
  Pt  Pt160  1  0.56494296  0.24070386  0.43517897  1
  Pt  Pt161  1  0.24089183  0.56498268  0.43515978  1
  Pt  Pt162  1  0.50005593  0.30466396  0.69666315  1
  Pt  Pt163  1  0.30490333  0.49976261  0.69641257  1
  Pt  Pt164  1  0.50007642  0.30461498  0.30332244  1
  Pt  Pt165  1  0.30484242  0.50016823  0.30333994  1
  Pt  Pt166  1  0.50012350  0.69599530  0.69662243  1
  Pt  Pt167  1  0.69606456  0.50006766  0.69647438  1
  Pt  Pt168  1  0.69590602  0.50012025  0.30358486  1
  Pt  Pt169  1  0.50008429  0.69595732  0.30357687  1
  Pt  Pt170  1  0.43603507  0.43594521  0.23834370  1
  Pt  Pt171  1  0.43612594  0.56420833  0.23804990  1
  Pt  Pt172  1  0.56409325  0.43622040  0.23821111  1
  Pt  Pt173  1  0.43593318  0.43592896  0.76161025  1
  Pt  Pt174  1  0.56400835  0.56394139  0.23808959  1
  Pt  Pt175  1  0.43609475  0.56410589  0.76174510  1
  Pt  Pt176  1  0.56429205  0.43613788  0.76176534  1
  Pt  Pt177  1  0.56393181  0.56390727  0.76186552  1
  Pt  Pt178  1  0.75249296  0.62686468  0.49998391  1
  Pt  Pt179  1  0.62680834  0.75247823  0.49996341  1
  Pt  Pt180  1  0.75263697  0.37327223  0.49997895  1
  Pt  Pt181  1  0.37321620  0.75273844  0.49995936  1
  Pt  Pt182  1  0.62666978  0.24753862  0.49998455  1
  Pt  Pt183  1  0.24761275  0.62662303  0.49990094  1
  Au  Au184  1  0.37032242  0.23703492  0.50011964  1
  Au  Au185  1  0.23706893  0.37057985  0.50048610  1
  Au  Au186  1  0.76507304  0.50012517  0.36928179  1
  Au  Au187  1  0.50011151  0.76507562  0.36927216  1
  Au  Au188  1  0.76508997  0.50006699  0.63067040  1
  Au  Au189  1  0.50019041  0.76508310  0.63076515  1
  Au  Au190  1  0.23594368  0.50099012  0.36837408  1
  Au  Au191  1  0.50076055  0.23575582  0.36842222  1
  Au  Au192  1  0.50094838  0.23551459  0.63155278  1
  Au  Au193  1  0.23623953  0.50042476  0.63173712  1
  Au  Au194  1  0.63092379  0.50005249  0.23410003  1
  Au  Au195  1  0.50005649  0.63092340  0.23411378  1
  Au  Au196  1  0.36951348  0.49999738  0.23389931  1
  Au  Au197  1  0.50006215  0.36935311  0.23384763  1
  Au  Au198  1  0.63093454  0.50004392  0.76588269  1
  Au  Au199  1  0.50002249  0.63091448  0.76587913  1
  Au  Au200  1  0.50005771  0.36964163  0.76618653  1
  Au  Au201  1  0.36932309  0.49997647  0.76605536  1
  Au  Au202  1  0.30062882  0.30069743  0.36619081  1
  Au  Au203  1  0.30062952  0.30064860  0.63378369  1
  Au  Au204  1  0.70016358  0.29986362  0.36407044  1
  Au  Au205  1  0.29991161  0.70016527  0.36408915  1
  Au  Au206  1  0.70014476  0.29988302  0.63589022  1
  Au  Au207  1  0.29990046  0.70013405  0.63588089  1
  Au  Au208  1  0.70017627  0.70018680  0.36408078  1
  Au  Au209  1  0.70013200  0.70014974  0.63588700  1
  Au  Au210  1  0.63190820  0.30057819  0.70189752  1
  Au  Au211  1  0.30051779  0.63173225  0.70182222  1
  Au  Au212  1  0.30040236  0.36825057  0.70106083  1
  Au  Au213  1  0.36809989  0.30041476  0.70112378  1
  Au  Au214  1  0.63194003  0.30055686  0.29800832  1
  Au  Au215  1  0.30059995  0.63192957  0.29806025  1
  Au  Au216  1  0.63190946  0.69959048  0.70193716  1
  Au  Au217  1  0.69955282  0.63189339  0.70188559  1
  Au  Au218  1  0.36814745  0.30041417  0.29885879  1
  Au  Au219  1  0.30038679  0.36814365  0.29881483  1
  Au  Au220  1  0.69962666  0.36834478  0.70175047  1
  Au  Au221  1  0.36832410  0.69952533  0.70169396  1
  Au  Au222  1  0.69965677  0.63191794  0.29809593  1
  Au  Au223  1  0.63187853  0.69957118  0.29814655  1
  Au  Au224  1  0.69957375  0.36834434  0.29822440  1
  Au  Au225  1  0.36825437  0.69965078  0.29816738  1
  Au  Au226  1  0.62965901  0.76328567  0.36745494  1
  Au  Au227  1  0.76335974  0.62961713  0.36733761  1
  Au  Au228  1  0.76329237  0.62965906  0.63254279  1
  Au  Au229  1  0.62968617  0.76326880  0.63251901  1
  Au  Au230  1  0.76333748  0.37050587  0.36742124  1
  Au  Au231  1  0.37053346  0.76339058  0.36743493  1
  Au  Au232  1  0.76337014  0.37053312  0.63257192  1
  Au  Au233  1  0.37057468  0.76339778  0.63256238  1
  Au  Au234  1  0.62959063  0.23666645  0.36726559  1
  Au  Au235  1  0.23678418  0.62959548  0.36724715  1
  Au  Au236  1  0.62958510  0.23669850  0.63272476  1
  Au  Au237  1  0.23673264  0.62953853  0.63269295  1
  Au  Au238  1  0.37056276  0.23732166  0.36920290  1
  Au  Au239  1  0.23720036  0.37052420  0.36893696  1
  Au  Au240  1  0.37057029  0.23708426  0.63125303  1
  Au  Au241  1  0.23718891  0.37054127  0.63105329  1
  Au  Au242  1  0.62969056  0.62974741  0.23489317  1
  Au  Au243  1  0.37072362  0.63010527  0.23466413  1
  Au  Au244  1  0.63017510  0.37077792  0.23471209  1
  Au  Au245  1  0.62964433  0.62961988  0.76528856  1
  Au  Au246  1  0.37014532  0.37022140  0.23523057  1
  Au  Au247  1  0.63009371  0.37055115  0.76518300  1
  Au  Au248  1  0.37040084  0.62975567  0.76494956  1
  Au  Au249  1  0.37006243  0.37002892  0.76482096  1
