# generated using pymatgen
data_Ni76HPt245
_symmetry_space_group_name_H-M   'P 1'
_cell_length_a   30.00000000
_cell_length_b   30.00000000
_cell_length_c   30.00000000
_cell_angle_alpha   90.00000000
_cell_angle_beta   90.00000000
_cell_angle_gamma   90.00000000
_symmetry_Int_Tables_number   1
_chemical_formula_structural   Ni76HPt245
_chemical_formula_sum   'Ni76 H1 Pt245'
_cell_volume   27000.00000000
_cell_formula_units_Z   1
loop_
 _symmetry_equiv_pos_site_id
 _symmetry_equiv_pos_as_xyz
  1  'x, y, z'
loop_
 _atom_site_type_symbol
 _atom_site_label
 _atom_site_symmetry_multiplicity
 _atom_site_fract_x
 _atom_site_fract_y
 _atom_site_fract_z
 _atom_site_occupancy
  Ni  Ni0  1  0.55424291  0.44600846  0.54917291  1
  Ni  Ni1  1  0.53327068  0.45554899  0.42334491  1
  Ni  Ni2  1  0.46974770  0.54157231  0.57115520  1
  Ni  Ni3  1  0.44846249  0.55107852  0.44385353  1
  Ni  Ni4  1  0.64136081  0.44506369  0.53476187  1
  Ni  Ni5  1  0.54625342  0.35852917  0.54451693  1
  Ni  Ni6  1  0.62011371  0.45434928  0.40825890  1
  Ni  Ni7  1  0.52518517  0.36806915  0.41770443  1
  Ni  Ni8  1  0.64888972  0.53240164  0.53918766  1
  Ni  Ni9  1  0.45972972  0.36020729  0.55816306  1
  Ni  Ni10  1  0.62792532  0.54170963  0.41438478  1
  Ni  Ni11  1  0.43860335  0.36962477  0.43321581  1
  Ni  Ni12  1  0.56415303  0.62868694  0.56110693  1
  Ni  Ni13  1  0.37382680  0.45621815  0.57972907  1
  Ni  Ni14  1  0.54310956  0.63815633  0.43537518  1
  Ni  Ni15  1  0.35289872  0.46523712  0.45422761  1
  Ni  Ni16  1  0.57453513  0.43700079  0.67488497  1
  Ni  Ni17  1  0.51162040  0.46563807  0.29789417  1
  Ni  Ni18  1  0.49050855  0.53245417  0.69803486  1
  Ni  Ni19  1  0.42683574  0.56096001  0.31708672  1
  Ni  Ni20  1  0.66048918  0.43572320  0.65821063  1
  Ni  Ni21  1  0.56667684  0.34973223  0.66803249  1
  Ni  Ni22  1  0.59812787  0.46351014  0.28539854  1
  Ni  Ni23  1  0.50474719  0.37858943  0.29467192  1
  Ni  Ni24  1  0.73475973  0.53093109  0.52316606  1
  Ni  Ni25  1  0.45169500  0.27369778  0.55156047  1
  Ni  Ni26  1  0.71438095  0.54001678  0.40135371  1
  Ni  Ni27  1  0.43131881  0.28261314  0.42956521  1
  Ni  Ni28  1  0.66807814  0.52542260  0.66347866  1
  Ni  Ni29  1  0.47889451  0.35208044  0.68277128  1
  Ni  Ni30  1  0.60581554  0.55322500  0.29099014  1
  Ni  Ni31  1  0.41589411  0.38045048  0.30986690  1
  Ni  Ni32  1  0.58594954  0.61808732  0.68566031  1
  Ni  Ni33  1  0.39604987  0.44555894  0.70459599  1
  Ni  Ni34  1  0.52325716  0.64619647  0.31024034  1
  Ni  Ni35  1  0.33323918  0.47340307  0.32905193  1
  Ni  Ni36  1  0.74564366  0.61838674  0.53264074  1
  Ni  Ni37  1  0.36524706  0.27254899  0.57056431  1
  Ni  Ni38  1  0.72376271  0.62820795  0.40157938  1
  Ni  Ni39  1  0.34319735  0.28222714  0.43954952  1
  Ni  Ni40  1  0.65798418  0.71958458  0.55580738  1
  Ni  Ni41  1  0.27523044  0.37148463  0.59386148  1
  Ni  Ni42  1  0.63582268  0.72941224  0.42292454  1
  Ni  Ni43  1  0.25294803  0.38147272  0.46100331  1
  Ni  Ni44  1  0.39170803  0.73052052  0.60055214  1
  Ni  Ni45  1  0.29282136  0.64053676  0.61028957  1
  Ni  Ni46  1  0.27087852  0.65024689  0.47874256  1
  Ni  Ni47  1  0.36972402  0.74026601  0.46892200  1
  Ni  Ni48  1  0.75694328  0.52073653  0.64748312  1
  Ni  Ni49  1  0.47343408  0.26278866  0.67625618  1
  Ni  Ni50  1  0.69485311  0.54842015  0.27646628  1
  Ni  Ni51  1  0.41121787  0.29039576  0.30477298  1
  Ni  Ni52  1  0.59053961  0.43189240  0.78817266  1
  Ni  Ni53  1  0.49010913  0.47717771  0.18567659  1
  Ni  Ni54  1  0.51232474  0.52096578  0.80978727  1
  Ni  Ni55  1  0.41103725  0.56610921  0.20408032  1
  Ni  Ni56  1  0.71320427  0.26681523  0.50527085  1
  Ni  Ni57  1  0.69334561  0.27552786  0.38707058  1
  Ni  Ni58  1  0.30854555  0.72282972  0.60736119  1
  Ni  Ni59  1  0.28854648  0.73174425  0.48831528  1
  Ni  Ni60  1  0.38931864  0.27105416  0.68669345  1
  Ni  Ni61  1  0.75767571  0.60544772  0.65022818  1
  Ni  Ni62  1  0.69669397  0.63269765  0.28597820  1
  Ni  Ni63  1  0.32868778  0.29790784  0.32265143  1
  Ni  Ni64  1  0.30327591  0.36738104  0.70918687  1
  Ni  Ni65  1  0.67202755  0.70281583  0.67257117  1
  Ni  Ni66  1  0.61097499  0.73014306  0.30689541  1
  Ni  Ni67  1  0.24204512  0.39461271  0.34340475  1
  Ni  Ni68  1  0.41465379  0.71627384  0.71641240  1
  Ni  Ni69  1  0.31747492  0.62787017  0.72617505  1
  Ni  Ni70  1  0.35353652  0.74349783  0.35117259  1
  Ni  Ni71  1  0.25649476  0.65518486  0.36076159  1
  Ni  Ni72  1  0.48469385  0.80710835  0.58911727  1
  Ni  Ni73  1  0.20742603  0.55499755  0.61683218  1
  Ni  Ni74  1  0.46318943  0.81668225  0.46060144  1
  Ni  Ni75  1  0.18590932  0.56473750  0.48789650  1
  H  H76  1  0.53326774  0.25642055  0.76561811  1
  Pt  Pt77  1  0.50160321  0.49841980  0.49686277  1
  Pt  Pt78  1  0.55870273  0.53708747  0.55560727  1
  Pt  Pt79  1  0.53751629  0.54671014  0.42904991  1
  Pt  Pt80  1  0.46457243  0.45158444  0.56492784  1
  Pt  Pt81  1  0.44325311  0.46101702  0.43836338  1
  Pt  Pt82  1  0.59103671  0.49392540  0.48145701  1
  Pt  Pt83  1  0.49637074  0.40797630  0.49087577  1
  Pt  Pt84  1  0.50687476  0.58883348  0.50276052  1
  Pt  Pt85  1  0.41219566  0.50290319  0.51206896  1
  Pt  Pt86  1  0.58290021  0.40677309  0.47648668  1
  Pt  Pt87  1  0.52258270  0.48907014  0.62363744  1
  Pt  Pt88  1  0.48018376  0.50816065  0.37018758  1
  Pt  Pt89  1  0.41815248  0.59258556  0.51780392  1
  Pt  Pt90  1  0.59579765  0.58411627  0.48751263  1
  Pt  Pt91  1  0.40725018  0.41293156  0.50622748  1
  Pt  Pt92  1  0.61181972  0.48524875  0.60732019  1
  Pt  Pt93  1  0.56981070  0.50405025  0.35598567  1
  Pt  Pt94  1  0.51677050  0.39846753  0.61701347  1
  Pt  Pt95  1  0.47475120  0.41760786  0.36542225  1
  Pt  Pt96  1  0.52819984  0.57982005  0.62951849  1
  Pt  Pt97  1  0.48582697  0.59886247  0.37589507  1
  Pt  Pt98  1  0.43295487  0.49337050  0.63896679  1
  Pt  Pt99  1  0.39045864  0.51216867  0.38536570  1
  Pt  Pt100  1  0.47635961  0.63104994  0.57685492  1
  Pt  Pt101  1  0.45503222  0.64060748  0.44939587  1
  Pt  Pt102  1  0.38108247  0.54477195  0.58618124  1
  Pt  Pt103  1  0.35988090  0.55405995  0.45880936  1
  Pt  Pt104  1  0.56187177  0.41621161  0.35070980  1
  Pt  Pt105  1  0.60385760  0.39750102  0.60195330  1
  Pt  Pt106  1  0.67788740  0.49302644  0.46693986  1
  Pt  Pt107  1  0.48815786  0.32053474  0.48581507  1
  Pt  Pt108  1  0.43853626  0.58390565  0.64489295  1
  Pt  Pt109  1  0.39619675  0.60279463  0.39109744  1
  Pt  Pt110  1  0.61700715  0.57597538  0.61271466  1
  Pt  Pt111  1  0.42700961  0.40374258  0.63133486  1
  Pt  Pt112  1  0.57511837  0.59469717  0.36223086  1
  Pt  Pt113  1  0.38518923  0.42200183  0.38112355  1
  Pt  Pt114  1  0.51232347  0.67951258  0.50861677  1
  Pt  Pt115  1  0.32245370  0.50715920  0.52739049  1
  Pt  Pt116  1  0.63587882  0.35420932  0.52881332  1
  Pt  Pt117  1  0.61481383  0.36369970  0.40269841  1
  Pt  Pt118  1  0.67248507  0.40201226  0.46104492  1
  Pt  Pt119  1  0.57808564  0.31616681  0.47047820  1
  Pt  Pt120  1  0.58076572  0.52931346  0.68124473  1
  Pt  Pt121  1  0.48391764  0.44106508  0.69088985  1
  Pt  Pt122  1  0.51753949  0.55760954  0.30316786  1
  Pt  Pt123  1  0.42063668  0.46948555  0.31281570  1
  Pt  Pt124  1  0.65271356  0.62408307  0.54547453  1
  Pt  Pt125  1  0.63173390  0.63337295  0.42052582  1
  Pt  Pt126  1  0.36923929  0.36625944  0.57375199  1
  Pt  Pt127  1  0.34811185  0.37556438  0.44875407  1
  Pt  Pt128  1  0.68595666  0.58084889  0.47206583  1
  Pt  Pt129  1  0.40105291  0.32186151  0.50049029  1
  Pt  Pt130  1  0.60142575  0.67637981  0.49345481  1
  Pt  Pt131  1  0.31608461  0.41706146  0.52177547  1
  Pt  Pt132  1  0.42060590  0.68569006  0.52440898  1
  Pt  Pt133  1  0.32633316  0.60008520  0.53365021  1
  Pt  Pt134  1  0.38359497  0.63862418  0.59240143  1
  Pt  Pt135  1  0.36254594  0.64799874  0.46583293  1
  Pt  Pt136  1  0.69904051  0.48349462  0.59152795  1
  Pt  Pt137  1  0.65732794  0.50208169  0.34212645  1
  Pt  Pt138  1  0.50942439  0.31038096  0.61098558  1
  Pt  Pt139  1  0.46746128  0.32938997  0.36114627  1
  Pt  Pt140  1  0.53340706  0.67131041  0.63529501  1
  Pt  Pt141  1  0.34260629  0.49785167  0.65415526  1
  Pt  Pt142  1  0.49114011  0.69022177  0.38204780  1
  Pt  Pt143  1  0.30022593  0.51667055  0.40094337  1
  Pt  Pt144  1  0.69230661  0.39386394  0.58593450  1
  Pt  Pt145  1  0.65057373  0.41239839  0.33659598  1
  Pt  Pt146  1  0.59794211  0.30794468  0.59554400  1
  Pt  Pt147  1  0.55624149  0.32659335  0.34600061  1
  Pt  Pt148  1  0.72966856  0.44108765  0.51780015  1
  Pt  Pt149  1  0.54052026  0.26915738  0.53678679  1
  Pt  Pt150  1  0.70910517  0.45024456  0.39500500  1
  Pt  Pt151  1  0.51998680  0.27821565  0.41390261  1
  Pt  Pt152  1  0.49628114  0.62149845  0.70168816  1
  Pt  Pt153  1  0.40229040  0.53612847  0.71104281  1
  Pt  Pt154  1  0.43327529  0.64972562  0.32478001  1
  Pt  Pt155  1  0.33933570  0.56428312  0.33402985  1
  Pt  Pt156  1  0.70415762  0.57149607  0.59581840  1
  Pt  Pt157  1  0.66290788  0.58985508  0.34922330  1
  Pt  Pt158  1  0.42238220  0.31521087  0.62420562  1
  Pt  Pt159  1  0.38081742  0.33338230  0.37737240  1
  Pt  Pt160  1  0.62115110  0.66552313  0.61833139  1
  Pt  Pt161  1  0.57943614  0.68421020  0.36862293  1
  Pt  Pt162  1  0.33864689  0.40879882  0.64628870  1
  Pt  Pt163  1  0.29689136  0.42730770  0.39665642  1
  Pt  Pt164  1  0.56951375  0.71833942  0.56549179  1
  Pt  Pt165  1  0.54899199  0.72749335  0.44246918  1
  Pt  Pt166  1  0.28517074  0.46000031  0.59366291  1
  Pt  Pt167  1  0.26464344  0.46907104  0.47059328  1
  Pt  Pt168  1  0.44201051  0.67519918  0.64988508  1
  Pt  Pt169  1  0.40001454  0.69392908  0.39854803  1
  Pt  Pt170  1  0.34844564  0.59019238  0.65921157  1
  Pt  Pt171  1  0.30643344  0.60875139  0.40780425  1
  Pt  Pt172  1  0.47872696  0.72422522  0.58067444  1
  Pt  Pt173  1  0.28905150  0.55186203  0.59945588  1
  Pt  Pt174  1  0.45832657  0.73326803  0.45850068  1
  Pt  Pt175  1  0.26866964  0.56089966  0.47728718  1
  Pt  Pt176  1  0.45969864  0.51770617  0.25154110  1
  Pt  Pt177  1  0.54179509  0.48123952  0.74257493  1
  Pt  Pt178  1  0.66541038  0.31387604  0.45564920  1
  Pt  Pt179  1  0.68709348  0.66911762  0.47842632  1
  Pt  Pt180  1  0.31428081  0.33005625  0.51570061  1
  Pt  Pt181  1  0.33389959  0.68749732  0.53888013  1
  Pt  Pt182  1  0.66043745  0.34151846  0.65624290  1
  Pt  Pt183  1  0.59645968  0.36957037  0.27320168  1
  Pt  Pt184  1  0.77271621  0.48833547  0.45064762  1
  Pt  Pt185  1  0.48263148  0.22473404  0.47969453  1
  Pt  Pt186  1  0.63696885  0.47606438  0.73214884  1
  Pt  Pt187  1  0.55315317  0.51365968  0.22972805  1
  Pt  Pt188  1  0.53658777  0.38464345  0.74093126  1
  Pt  Pt189  1  0.45308348  0.42265837  0.23955963  1
  Pt  Pt190  1  0.54943830  0.57649291  0.75797825  1
  Pt  Pt191  1  0.46425126  0.61464646  0.24837278  1
  Pt  Pt192  1  0.44838054  0.48462907  0.76810112  1
  Pt  Pt193  1  0.36303300  0.52261798  0.25836869  1
  Pt  Pt194  1  0.67809086  0.61841594  0.67475594  1
  Pt  Pt195  1  0.61385826  0.64711302  0.29063705  1
  Pt  Pt196  1  0.38673115  0.35386841  0.70322274  1
  Pt  Pt197  1  0.32222940  0.38186331  0.31960264  1
  Pt  Pt198  1  0.73773554  0.34619045  0.51766004  1
  Pt  Pt199  1  0.71437405  0.35652313  0.37893019  1
  Pt  Pt200  1  0.63377481  0.25159067  0.52816163  1
  Pt  Pt201  1  0.61044772  0.26191538  0.38943266  1
  Pt  Pt202  1  0.40102211  0.63394804  0.72423178  1
  Pt  Pt203  1  0.33632587  0.66275811  0.33649631  1
  Pt  Pt204  1  0.51537557  0.78111340  0.51562462  1
  Pt  Pt205  1  0.22202490  0.51498198  0.54475643  1
  Pt  Pt206  1  0.62515306  0.38739695  0.72553012  1
  Pt  Pt207  1  0.54192890  0.42462495  0.22691069  1
  Pt  Pt208  1  0.37364220  0.61394844  0.26453297  1
  Pt  Pt209  1  0.45845360  0.57605555  0.77217903  1
  Pt  Pt210  1  0.63963297  0.56829399  0.74008941  1
  Pt  Pt211  1  0.36200727  0.43040179  0.25387765  1
  Pt  Pt212  1  0.55511649  0.60612337  0.23476035  1
  Pt  Pt213  1  0.44640647  0.39292668  0.75945643  1
  Pt  Pt214  1  0.77521731  0.57904548  0.45704378  1
  Pt  Pt215  1  0.39328744  0.23179769  0.49508224  1
  Pt  Pt216  1  0.64908168  0.31773756  0.32841691  1
  Pt  Pt217  1  0.69151949  0.29904893  0.58045240  1
  Pt  Pt218  1  0.76696256  0.39518825  0.44467465  1
  Pt  Pt219  1  0.57476710  0.22027234  0.46400150  1
  Pt  Pt220  1  0.28792023  0.33593085  0.38873825  1
  Pt  Pt221  1  0.66983383  0.68312957  0.35086546  1
  Pt  Pt222  1  0.33058070  0.31709588  0.64341290  1
  Pt  Pt223  1  0.71238004  0.66415215  0.60554228  1
  Pt  Pt224  1  0.60628958  0.77252365  0.49982668  1
  Pt  Pt225  1  0.22126159  0.42255904  0.53792624  1
  Pt  Pt226  1  0.35092213  0.68274226  0.66626252  1
  Pt  Pt227  1  0.30867601  0.70150806  0.41384049  1
  Pt  Pt228  1  0.42577331  0.78046505  0.53054167  1
  Pt  Pt229  1  0.23277071  0.60497185  0.54970938  1
  Pt  Pt230  1  0.75661730  0.43304278  0.64518199  1
  Pt  Pt231  1  0.56066438  0.25352171  0.66526849  1
  Pt  Pt232  1  0.69327577  0.46115460  0.26615276  1
  Pt  Pt233  1  0.49655391  0.28230200  0.28579193  1
  Pt  Pt234  1  0.79179395  0.48050876  0.57994850  1
  Pt  Pt235  1  0.74875425  0.49966607  0.32252585  1
  Pt  Pt236  1  0.50279362  0.21761126  0.60915865  1
  Pt  Pt237  1  0.45965072  0.23674477  0.35140583  1
  Pt  Pt238  1  0.58972989  0.71412888  0.69447860  1
  Pt  Pt239  1  0.52626450  0.74258613  0.31463653  1
  Pt  Pt240  1  0.30169580  0.45215863  0.72313369  1
  Pt  Pt241  1  0.23809737  0.48044475  0.34309262  1
  Pt  Pt242  1  0.50024374  0.72089413  0.71088117  1
  Pt  Pt243  1  0.30472430  0.54300842  0.73033047  1
  Pt  Pt244  1  0.43642524  0.74939632  0.32933308  1
  Pt  Pt245  1  0.24089756  0.57152781  0.34848872  1
  Pt  Pt246  1  0.53728187  0.76668981  0.64385613  1
  Pt  Pt247  1  0.49426544  0.78584757  0.38659633  1
  Pt  Pt248  1  0.24879201  0.50433589  0.67257514  1
  Pt  Pt249  1  0.20578094  0.52360003  0.41500805  1
  Pt  Pt250  1  0.44596861  0.33638939  0.24129760  1
  Pt  Pt251  1  0.72099378  0.47588559  0.71121583  1
  Pt  Pt252  1  0.52870152  0.29738844  0.73321434  1
  Pt  Pt253  1  0.63935654  0.51232895  0.22207808  1
  Pt  Pt254  1  0.79085445  0.56829692  0.58369881  1
  Pt  Pt255  1  0.74871997  0.58702239  0.33199612  1
  Pt  Pt256  1  0.41638615  0.22787710  0.62118551  1
  Pt  Pt257  1  0.37417320  0.24645325  0.36942422  1
  Pt  Pt258  1  0.55244536  0.66480613  0.75720258  1
  Pt  Pt259  1  0.46944283  0.70194419  0.26098932  1
  Pt  Pt260  1  0.36059727  0.49030758  0.77639133  1
  Pt  Pt261  1  0.27753308  0.52737710  0.27986879  1
  Pt  Pt262  1  0.78624126  0.39143777  0.57326329  1
  Pt  Pt263  1  0.74356821  0.41040179  0.31780927  1
  Pt  Pt264  1  0.54798012  0.23247372  0.33731246  1
  Pt  Pt265  1  0.59071680  0.21359788  0.59282269  1
  Pt  Pt266  1  0.58311994  0.77541217  0.37376569  1
  Pt  Pt267  1  0.62522388  0.75658563  0.62553889  1
  Pt  Pt268  1  0.24908322  0.41444812  0.66300499  1
  Pt  Pt269  1  0.20679168  0.43329126  0.41093286  1
  Pt  Pt270  1  0.44836840  0.76560300  0.65434352  1
  Pt  Pt271  1  0.21729618  0.61184726  0.42402479  1
  Pt  Pt272  1  0.40677026  0.78415112  0.40543693  1
  Pt  Pt273  1  0.25896610  0.59327093  0.67320447  1
  Pt  Pt274  1  0.71264205  0.38928453  0.70858416  1
  Pt  Pt275  1  0.63017103  0.42604645  0.21481248  1
  Pt  Pt276  1  0.61522804  0.29942683  0.71818109  1
  Pt  Pt277  1  0.53134486  0.33617263  0.22458714  1
  Pt  Pt278  1  0.82182179  0.52819382  0.51204635  1
  Pt  Pt279  1  0.44551676  0.18629932  0.54973187  1
  Pt  Pt280  1  0.80022582  0.53778899  0.38315316  1
  Pt  Pt281  1  0.42393105  0.19558289  0.42074732  1
  Pt  Pt282  1  0.59791850  0.51672247  0.80119018  1
  Pt  Pt283  1  0.50807015  0.43464498  0.80977102  1
  Pt  Pt284  1  0.49466492  0.56278104  0.18379818  1
  Pt  Pt285  1  0.40471556  0.48100972  0.19270820  1
  Pt  Pt286  1  0.72670229  0.56039587  0.71693772  1
  Pt  Pt287  1  0.64474178  0.59695518  0.22708476  1
  Pt  Pt288  1  0.36229106  0.33992499  0.25525937  1
  Pt  Pt289  1  0.44368729  0.30390884  0.74474599  1
  Pt  Pt290  1  0.63786024  0.65759990  0.74157879  1
  Pt  Pt291  1  0.55510847  0.69459617  0.24689919  1
  Pt  Pt292  1  0.35839201  0.40343836  0.76936163  1
  Pt  Pt293  1  0.27572153  0.44039930  0.27448241  1
  Pt  Pt294  1  0.74719942  0.34377278  0.63577393  1
  Pt  Pt295  1  0.64867463  0.25358875  0.64542269  1
  Pt  Pt296  1  0.68515827  0.37126384  0.26516195  1
  Pt  Pt297  1  0.58615658  0.28110035  0.27496646  1
  Pt  Pt298  1  0.75182658  0.30695512  0.44064003  1
  Pt  Pt299  1  0.66301551  0.22612427  0.44965401  1
  Pt  Pt300  1  0.34061412  0.77293940  0.54426786  1
  Pt  Pt301  1  0.24925835  0.68990034  0.55333120  1
  Pt  Pt302  1  0.81925332  0.43601388  0.50598621  1
  Pt  Pt303  1  0.79767629  0.44566965  0.37634276  1
  Pt  Pt304  1  0.53622234  0.17880095  0.53434849  1
  Pt  Pt305  1  0.51461592  0.18831064  0.40474073  1
  Pt  Pt306  1  0.74142583  0.70604203  0.53641896  1
  Pt  Pt307  1  0.72071662  0.71541749  0.41207748  1
  Pt  Pt308  1  0.27906432  0.28555623  0.58244766  1
  Pt  Pt309  1  0.25835184  0.29490437  0.45815936  1
  Pt  Pt310  1  0.77248748  0.66431916  0.46384137  1
  Pt  Pt311  1  0.30985067  0.24357467  0.50993987  1
  Pt  Pt312  1  0.68921782  0.75670311  0.48471174  1
  Pt  Pt313  1  0.22803471  0.33733141  0.53057859  1
  Pt  Pt314  1  0.38252424  0.70421883  0.27517055  1
  Pt  Pt315  1  0.46573486  0.66703023  0.77245208  1
  Pt  Pt316  1  0.36777198  0.57789077  0.78224018  1
  Pt  Pt317  1  0.28466902  0.61511896  0.28474939  1
  Pt  Pt318  1  0.57363450  0.80887671  0.57525009  1
  Pt  Pt319  1  0.19642159  0.46562608  0.61275815  1
  Pt  Pt320  1  0.55190409  0.81852555  0.44505227  1
  Pt  Pt321  1  0.17458594  0.47559222  0.48229469  1
