# generated using pymatgen
data_Ni76HPt245
_symmetry_space_group_name_H-M   'P 1'
_cell_length_a   30.00000000
_cell_length_b   30.00000000
_cell_length_c   30.00000000
_cell_angle_alpha   90.00000000
_cell_angle_beta   90.00000000
_cell_angle_gamma   90.00000000
_symmetry_Int_Tables_number   1
_chemical_formula_structural   Ni76HPt245
_chemical_formula_sum   'Ni76 H1 Pt245'
_cell_volume   27000.00000000
_cell_formula_units_Z   1
loop_
 _symmetry_equiv_pos_site_id
 _symmetry_equiv_pos_as_xyz
  1  'x, y, z'
loop_
 _atom_site_type_symbol
 _atom_site_label
 _atom_site_symmetry_multiplicity
 _atom_site_fract_x
 _atom_site_fract_y
 _atom_site_fract_z
 _atom_site_occupancy
  Ni  Ni0  1  0.55441324  0.44589585  0.54932534  1
  Ni  Ni1  1  0.53342864  0.45511176  0.42335866  1
  Ni  Ni2  1  0.46978634  0.54151232  0.57131481  1
  Ni  Ni3  1  0.44865030  0.55101932  0.44402487  1
  Ni  Ni4  1  0.64144635  0.44466650  0.53472523  1
  Ni  Ni5  1  0.54652767  0.35833988  0.54431955  1
  Ni  Ni6  1  0.62037961  0.45401008  0.40843311  1
  Ni  Ni7  1  0.52539888  0.36773470  0.41781085  1
  Ni  Ni8  1  0.64904372  0.53217806  0.53935219  1
  Ni  Ni9  1  0.45964901  0.36018650  0.55813890  1
  Ni  Ni10  1  0.62834012  0.54139961  0.41446435  1
  Ni  Ni11  1  0.43878179  0.36956136  0.43324682  1
  Ni  Ni12  1  0.56416027  0.62873064  0.56119243  1
  Ni  Ni13  1  0.37397778  0.45590255  0.58006079  1
  Ni  Ni14  1  0.54317137  0.63796759  0.43557198  1
  Ni  Ni15  1  0.35300809  0.46543920  0.45429748  1
  Ni  Ni16  1  0.57500537  0.43743193  0.67469285  1
  Ni  Ni17  1  0.51190191  0.46539836  0.29804444  1
  Ni  Ni18  1  0.49072635  0.53249001  0.69828825  1
  Ni  Ni19  1  0.42746877  0.56161060  0.31716557  1
  Ni  Ni20  1  0.66067955  0.43560560  0.65804734  1
  Ni  Ni21  1  0.56723832  0.35074176  0.66725790  1
  Ni  Ni22  1  0.59824716  0.46333574  0.28564097  1
  Ni  Ni23  1  0.50484970  0.37837637  0.29489357  1
  Ni  Ni24  1  0.73487324  0.53099803  0.52322757  1
  Ni  Ni25  1  0.45150734  0.27347940  0.55135484  1
  Ni  Ni26  1  0.71445138  0.54003560  0.40138880  1
  Ni  Ni27  1  0.43124554  0.28256562  0.42962158  1
  Ni  Ni28  1  0.66825673  0.52548083  0.66330146  1
  Ni  Ni29  1  0.47818236  0.35253960  0.68227320  1
  Ni  Ni30  1  0.60597497  0.55310516  0.29116095  1
  Ni  Ni31  1  0.41591306  0.38037716  0.31007477  1
  Ni  Ni32  1  0.58589726  0.61812734  0.68577729  1
  Ni  Ni33  1  0.39613825  0.44544317  0.70464544  1
  Ni  Ni34  1  0.52218277  0.64574719  0.31038340  1
  Ni  Ni35  1  0.33352117  0.47366824  0.32899563  1
  Ni  Ni36  1  0.74546955  0.61862599  0.53261188  1
  Ni  Ni37  1  0.36496407  0.27265447  0.57028212  1
  Ni  Ni38  1  0.72376589  0.62841525  0.40164609  1
  Ni  Ni39  1  0.34294088  0.28251103  0.43963361  1
  Ni  Ni40  1  0.65781399  0.71972571  0.55601132  1
  Ni  Ni41  1  0.27515482  0.37171073  0.59400612  1
  Ni  Ni42  1  0.63547831  0.72964361  0.42294497  1
  Ni  Ni43  1  0.25277011  0.38175752  0.46106787  1
  Ni  Ni44  1  0.39159200  0.73034798  0.60049353  1
  Ni  Ni45  1  0.29275815  0.64063360  0.61022714  1
  Ni  Ni46  1  0.27091586  0.65046201  0.47864007  1
  Ni  Ni47  1  0.36974602  0.74041879  0.46911900  1
  Ni  Ni48  1  0.75705240  0.52098457  0.64712562  1
  Ni  Ni49  1  0.47288694  0.26268187  0.67528569  1
  Ni  Ni50  1  0.69494907  0.54868402  0.27688753  1
  Ni  Ni51  1  0.41117866  0.29027866  0.30521752  1
  Ni  Ni52  1  0.59107977  0.43205078  0.78835932  1
  Ni  Ni53  1  0.49034081  0.47688000  0.18565988  1
  Ni  Ni54  1  0.51244996  0.52082796  0.80963027  1
  Ni  Ni55  1  0.41120357  0.56609369  0.20387571  1
  Ni  Ni56  1  0.71354264  0.26645161  0.50528051  1
  Ni  Ni57  1  0.69365863  0.27521675  0.38694529  1
  Ni  Ni58  1  0.30838088  0.72282237  0.60733014  1
  Ni  Ni59  1  0.28873835  0.73177091  0.48823161  1
  Ni  Ni60  1  0.38910218  0.27083592  0.68627175  1
  Ni  Ni61  1  0.75760897  0.60574362  0.64975610  1
  Ni  Ni62  1  0.69660938  0.63295567  0.28650759  1
  Ni  Ni63  1  0.32861295  0.29803841  0.32317528  1
  Ni  Ni64  1  0.30307040  0.36777518  0.70924498  1
  Ni  Ni65  1  0.67175498  0.70306288  0.67266148  1
  Ni  Ni66  1  0.61035311  0.73022351  0.30697148  1
  Ni  Ni67  1  0.24192687  0.39499641  0.34336211  1
  Ni  Ni68  1  0.41448934  0.71621699  0.71656059  1
  Ni  Ni69  1  0.31747288  0.62808436  0.72632374  1
  Ni  Ni70  1  0.35300828  0.74378735  0.35063543  1
  Ni  Ni71  1  0.25680829  0.65537247  0.36057302  1
  Ni  Ni72  1  0.48433538  0.80719267  0.58935918  1
  Ni  Ni73  1  0.20763995  0.55548076  0.61679998  1
  Ni  Ni74  1  0.46272328  0.81656750  0.46069126  1
  Ni  Ni75  1  0.18605796  0.56510754  0.48791233  1
  H  H76  1  0.37090153  0.74737023  0.24221169  1
  Pt  Pt77  1  0.50181342  0.49812054  0.49707410  1
  Pt  Pt78  1  0.55879200  0.53707089  0.55569972  1
  Pt  Pt79  1  0.53826311  0.54592684  0.42956089  1
  Pt  Pt80  1  0.46452501  0.45154504  0.56508492  1
  Pt  Pt81  1  0.44348813  0.46099365  0.43843540  1
  Pt  Pt82  1  0.59130730  0.49362559  0.48173232  1
  Pt  Pt83  1  0.49655719  0.40779114  0.49099449  1
  Pt  Pt84  1  0.50709112  0.58863656  0.50283942  1
  Pt  Pt85  1  0.41232509  0.50279976  0.51210661  1
  Pt  Pt86  1  0.58305901  0.40644479  0.47648730  1
  Pt  Pt87  1  0.52268549  0.48917028  0.62366347  1
  Pt  Pt88  1  0.48051467  0.50794578  0.37040727  1
  Pt  Pt89  1  0.41827038  0.59243001  0.51785986  1
  Pt  Pt90  1  0.59599741  0.58400637  0.48768261  1
  Pt  Pt91  1  0.40742021  0.41291169  0.50624059  1
  Pt  Pt92  1  0.61195421  0.48517619  0.60727981  1
  Pt  Pt93  1  0.57000403  0.50370048  0.35613069  1
  Pt  Pt94  1  0.51696225  0.39880060  0.61681101  1
  Pt  Pt95  1  0.47489136  0.41749830  0.36545781  1
  Pt  Pt96  1  0.52822753  0.57981518  0.62961669  1
  Pt  Pt97  1  0.48645284  0.59812696  0.37686372  1
  Pt  Pt98  1  0.43305985  0.49328128  0.63910343  1
  Pt  Pt99  1  0.39086580  0.51248414  0.38534134  1
  Pt  Pt100  1  0.47638161  0.63094577  0.57689012  1
  Pt  Pt101  1  0.45515928  0.64046198  0.44954663  1
  Pt  Pt102  1  0.38119185  0.54448116  0.58626213  1
  Pt  Pt103  1  0.36006413  0.55419098  0.45869744  1
  Pt  Pt104  1  0.56208988  0.41583511  0.35074828  1
  Pt  Pt105  1  0.60418172  0.39723436  0.60204087  1
  Pt  Pt106  1  0.67814091  0.49286950  0.46704744  1
  Pt  Pt107  1  0.48820964  0.32035122  0.48585147  1
  Pt  Pt108  1  0.43858491  0.58386546  0.64500647  1
  Pt  Pt109  1  0.39676506  0.60323702  0.39080297  1
  Pt  Pt110  1  0.61707899  0.57593885  0.61282543  1
  Pt  Pt111  1  0.42726448  0.40333846  0.63179438  1
  Pt  Pt112  1  0.57519122  0.59435091  0.36237093  1
  Pt  Pt113  1  0.38534527  0.42216617  0.38110985  1
  Pt  Pt114  1  0.51221027  0.67961910  0.50872459  1
  Pt  Pt115  1  0.32250814  0.50719615  0.52740530  1
  Pt  Pt116  1  0.63613850  0.35394006  0.52870509  1
  Pt  Pt117  1  0.61509970  0.36330955  0.40273355  1
  Pt  Pt118  1  0.67263450  0.40170679  0.46108787  1
  Pt  Pt119  1  0.57832427  0.31587107  0.47044691  1
  Pt  Pt120  1  0.58080402  0.52938123  0.68136518  1
  Pt  Pt121  1  0.48412340  0.44130553  0.69098616  1
  Pt  Pt122  1  0.51753339  0.55743780  0.30345360  1
  Pt  Pt123  1  0.42095664  0.46962094  0.31285646  1
  Pt  Pt124  1  0.65258644  0.62414761  0.54558238  1
  Pt  Pt125  1  0.63156734  0.63337572  0.42057507  1
  Pt  Pt126  1  0.36911299  0.36643774  0.57382064  1
  Pt  Pt127  1  0.34812869  0.37582189  0.44877653  1
  Pt  Pt128  1  0.68587289  0.58077553  0.47218270  1
  Pt  Pt129  1  0.40106279  0.32199695  0.50049914  1
  Pt  Pt130  1  0.60122479  0.67641631  0.49349491  1
  Pt  Pt131  1  0.31617385  0.41727102  0.52179478  1
  Pt  Pt132  1  0.42063490  0.68554506  0.52444789  1
  Pt  Pt133  1  0.32648792  0.60002471  0.53358406  1
  Pt  Pt134  1  0.38366113  0.63839331  0.59245629  1
  Pt  Pt135  1  0.36270798  0.64807190  0.46571653  1
  Pt  Pt136  1  0.69913588  0.48346044  0.59136753  1
  Pt  Pt137  1  0.65746126  0.50194125  0.34230332  1
  Pt  Pt138  1  0.50920064  0.31074329  0.61026219  1
  Pt  Pt139  1  0.46754157  0.32927390  0.36127869  1
  Pt  Pt140  1  0.53340617  0.67122045  0.63537222  1
  Pt  Pt141  1  0.34268910  0.49784443  0.65435534  1
  Pt  Pt142  1  0.49063977  0.68966254  0.38193374  1
  Pt  Pt143  1  0.30055195  0.51681001  0.40078614  1
  Pt  Pt144  1  0.69243937  0.39365095  0.58588513  1
  Pt  Pt145  1  0.65077796  0.41217541  0.33670214  1
  Pt  Pt146  1  0.59798990  0.30779304  0.59525792  1
  Pt  Pt147  1  0.55638213  0.32628010  0.34612322  1
  Pt  Pt148  1  0.72985467  0.44089679  0.51778948  1
  Pt  Pt149  1  0.54060618  0.26879186  0.53657552  1
  Pt  Pt150  1  0.70924482  0.44999696  0.39509721  1
  Pt  Pt151  1  0.52005342  0.27797839  0.41397773  1
  Pt  Pt152  1  0.49625279  0.62152656  0.70187434  1
  Pt  Pt153  1  0.40245066  0.53612682  0.71120040  1
  Pt  Pt154  1  0.43288837  0.65050580  0.32405707  1
  Pt  Pt155  1  0.33972801  0.56454921  0.33390255  1
  Pt  Pt156  1  0.70421219  0.57154286  0.59564174  1
  Pt  Pt157  1  0.66303372  0.58982966  0.34956590  1
  Pt  Pt158  1  0.42201983  0.31499969  0.62373640  1
  Pt  Pt159  1  0.38081337  0.33346114  0.37759747  1
  Pt  Pt160  1  0.62116981  0.66555047  0.61844600  1
  Pt  Pt161  1  0.57899591  0.68393384  0.36861505  1
  Pt  Pt162  1  0.33878369  0.40880832  0.64652731  1
  Pt  Pt163  1  0.29696115  0.42753288  0.39661518  1
  Pt  Pt164  1  0.56935292  0.71832827  0.56568114  1
  Pt  Pt165  1  0.54862485  0.72738592  0.44236552  1
  Pt  Pt166  1  0.28533291  0.46010090  0.59384641  1
  Pt  Pt167  1  0.26472136  0.46935897  0.47053589  1
  Pt  Pt168  1  0.44197726  0.67506234  0.65002172  1
  Pt  Pt169  1  0.39988780  0.69419947  0.39821867  1
  Pt  Pt170  1  0.34849289  0.59009496  0.65939361  1
  Pt  Pt171  1  0.30668112  0.60898139  0.40764829  1
  Pt  Pt172  1  0.47865722  0.72421446  0.58078957  1
  Pt  Pt173  1  0.28925459  0.55196680  0.59945726  1
  Pt  Pt174  1  0.45813894  0.73313623  0.45851110  1
  Pt  Pt175  1  0.26880280  0.56111139  0.47709786  1
  Pt  Pt176  1  0.45995051  0.51768454  0.25148530  1
  Pt  Pt177  1  0.54206777  0.48096742  0.74255728  1
  Pt  Pt178  1  0.66575285  0.31353280  0.45566189  1
  Pt  Pt179  1  0.68693173  0.66909984  0.47850222  1
  Pt  Pt180  1  0.31421892  0.33025606  0.51570091  1
  Pt  Pt181  1  0.33396954  0.68742578  0.53892166  1
  Pt  Pt182  1  0.66118831  0.34061945  0.65687436  1
  Pt  Pt183  1  0.59673568  0.36924773  0.27305603  1
  Pt  Pt184  1  0.77258004  0.48840073  0.45073492  1
  Pt  Pt185  1  0.48243359  0.22476565  0.47964407  1
  Pt  Pt186  1  0.63733221  0.47611700  0.73191564  1
  Pt  Pt187  1  0.55316786  0.51334362  0.22998458  1
  Pt  Pt188  1  0.53738450  0.38496451  0.74188336  1
  Pt  Pt189  1  0.45326803  0.42261894  0.23984364  1
  Pt  Pt190  1  0.54961067  0.57677398  0.75833563  1
  Pt  Pt191  1  0.46417616  0.61466090  0.24813397  1
  Pt  Pt192  1  0.44832177  0.48445395  0.76833756  1
  Pt  Pt193  1  0.36352034  0.52276667  0.25842936  1
  Pt  Pt194  1  0.67809985  0.61867220  0.67473388  1
  Pt  Pt195  1  0.61356942  0.64711979  0.29094101  1
  Pt  Pt196  1  0.38626397  0.35323784  0.70373417  1
  Pt  Pt197  1  0.32209653  0.38198297  0.31968586  1
  Pt  Pt198  1  0.73810235  0.34592192  0.51760779  1
  Pt  Pt199  1  0.71479001  0.35617618  0.37873820  1
  Pt  Pt200  1  0.63400114  0.25126249  0.52812806  1
  Pt  Pt201  1  0.61069030  0.26169394  0.38937001  1
  Pt  Pt202  1  0.40104024  0.63386828  0.72434611  1
  Pt  Pt203  1  0.33725099  0.66232083  0.33614436  1
  Pt  Pt204  1  0.51508646  0.78148957  0.51581139  1
  Pt  Pt205  1  0.22221739  0.51529011  0.54474520  1
  Pt  Pt206  1  0.62557466  0.38732478  0.72534426  1
  Pt  Pt207  1  0.54212653  0.42429481  0.22706336  1
  Pt  Pt208  1  0.37375637  0.61455951  0.26444238  1
  Pt  Pt209  1  0.45853938  0.57596643  0.77231510  1
  Pt  Pt210  1  0.63969934  0.56837378  0.73999837  1
  Pt  Pt211  1  0.36211669  0.43048904  0.25400954  1
  Pt  Pt212  1  0.55510914  0.60573223  0.23502376  1
  Pt  Pt213  1  0.44664515  0.39259770  0.75917257  1
  Pt  Pt214  1  0.77508113  0.57925082  0.45712225  1
  Pt  Pt215  1  0.39301796  0.23197053  0.49493007  1
  Pt  Pt216  1  0.64930003  0.31755649  0.32832386  1
  Pt  Pt217  1  0.69159724  0.29893062  0.58051370  1
  Pt  Pt218  1  0.76712567  0.39497781  0.44460976  1
  Pt  Pt219  1  0.57492566  0.22006054  0.46395907  1
  Pt  Pt220  1  0.28770897  0.33632804  0.38892512  1
  Pt  Pt221  1  0.66949536  0.68337453  0.35107860  1
  Pt  Pt222  1  0.33033468  0.31721148  0.64346816  1
  Pt  Pt223  1  0.71228665  0.66443817  0.60546079  1
  Pt  Pt224  1  0.60585961  0.77228722  0.49988998  1
  Pt  Pt225  1  0.22147092  0.42290139  0.53802354  1
  Pt  Pt226  1  0.35084559  0.68261272  0.66622561  1
  Pt  Pt227  1  0.30891435  0.70172966  0.41345278  1
  Pt  Pt228  1  0.42558779  0.78026484  0.53067684  1
  Pt  Pt229  1  0.23295158  0.60515794  0.54969030  1
  Pt  Pt230  1  0.75682132  0.43323965  0.64476922  1
  Pt  Pt231  1  0.55952105  0.25366817  0.66433490  1
  Pt  Pt232  1  0.69352398  0.46136291  0.26644057  1
  Pt  Pt233  1  0.49651009  0.28202980  0.28608019  1
  Pt  Pt234  1  0.79189910  0.48064215  0.57949788  1
  Pt  Pt235  1  0.74887650  0.49983378  0.32292255  1
  Pt  Pt236  1  0.50231585  0.21750517  0.60813172  1
  Pt  Pt237  1  0.45965276  0.23659912  0.35183064  1
  Pt  Pt238  1  0.58944430  0.71428449  0.69462527  1
  Pt  Pt239  1  0.52569877  0.74230112  0.31481613  1
  Pt  Pt240  1  0.30158656  0.45244274  0.72326496  1
  Pt  Pt241  1  0.23820116  0.48081648  0.34313434  1
  Pt  Pt242  1  0.49995619  0.72094009  0.71098594  1
  Pt  Pt243  1  0.30464203  0.54337060  0.73047661  1
  Pt  Pt244  1  0.43605294  0.75019064  0.32922417  1
  Pt  Pt245  1  0.24105895  0.57190407  0.34861391  1
  Pt  Pt246  1  0.53696637  0.76665118  0.64395493  1
  Pt  Pt247  1  0.49373527  0.78543941  0.38681331  1
  Pt  Pt248  1  0.24896430  0.50470095  0.67256079  1
  Pt  Pt249  1  0.20594390  0.52389319  0.41504764  1
  Pt  Pt250  1  0.44596241  0.33631096  0.24172341  1
  Pt  Pt251  1  0.72131482  0.47610829  0.71079432  1
  Pt  Pt252  1  0.52742920  0.29969160  0.73005313  1
  Pt  Pt253  1  0.63947665  0.51247621  0.22244299  1
  Pt  Pt254  1  0.79099716  0.56846454  0.58341938  1
  Pt  Pt255  1  0.74896768  0.58728668  0.33215798  1
  Pt  Pt256  1  0.41586311  0.22758607  0.62062339  1
  Pt  Pt257  1  0.37412333  0.24640092  0.36971720  1
  Pt  Pt258  1  0.55221265  0.66500606  0.75735775  1
  Pt  Pt259  1  0.46872334  0.70235861  0.26066295  1
  Pt  Pt260  1  0.36056788  0.49051571  0.77636553  1
  Pt  Pt261  1  0.27788110  0.52757598  0.27990094  1
  Pt  Pt262  1  0.78656097  0.39152465  0.57300379  1
  Pt  Pt263  1  0.74383100  0.41049672  0.31791963  1
  Pt  Pt264  1  0.54795626  0.23215313  0.33751850  1
  Pt  Pt265  1  0.59033594  0.21310224  0.59243896  1
  Pt  Pt266  1  0.58262494  0.77536515  0.37380987  1
  Pt  Pt267  1  0.62489400  0.75677017  0.62569582  1
  Pt  Pt268  1  0.24894434  0.41488432  0.66304983  1
  Pt  Pt269  1  0.20678180  0.43364918  0.41099751  1
  Pt  Pt270  1  0.44805079  0.76544822  0.65439975  1
  Pt  Pt271  1  0.21735037  0.61222518  0.42409697  1
  Pt  Pt272  1  0.40624023  0.78414901  0.40557435  1
  Pt  Pt273  1  0.25906675  0.59362031  0.67317959  1
  Pt  Pt274  1  0.71307241  0.38952192  0.70827272  1
  Pt  Pt275  1  0.63047045  0.42614915  0.21511788  1
  Pt  Pt276  1  0.61355267  0.29918347  0.71786738  1
  Pt  Pt277  1  0.53130909  0.33580993  0.22489197  1
  Pt  Pt278  1  0.82202223  0.52837294  0.51177780  1
  Pt  Pt279  1  0.44496971  0.18576158  0.54922980  1
  Pt  Pt280  1  0.80042464  0.53796408  0.38340663  1
  Pt  Pt281  1  0.42376255  0.19526570  0.42090250  1
  Pt  Pt282  1  0.59812081  0.51665711  0.80095203  1
  Pt  Pt283  1  0.50811340  0.43469584  0.80986858  1
  Pt  Pt284  1  0.49486936  0.56257740  0.18376873  1
  Pt  Pt285  1  0.40493781  0.48087426  0.19273451  1
  Pt  Pt286  1  0.72674664  0.56064180  0.71660960  1
  Pt  Pt287  1  0.64481124  0.59718725  0.22744218  1
  Pt  Pt288  1  0.36229440  0.33996192  0.25562716  1
  Pt  Pt289  1  0.44382990  0.30330627  0.74465326  1
  Pt  Pt290  1  0.63760786  0.65768339  0.74155206  1
  Pt  Pt291  1  0.55434920  0.69410974  0.24715658  1
  Pt  Pt292  1  0.35847961  0.40370290  0.76928536  1
  Pt  Pt293  1  0.27576810  0.44068283  0.27456688  1
  Pt  Pt294  1  0.74752472  0.34389264  0.63566019  1
  Pt  Pt295  1  0.64787244  0.25335737  0.64526109  1
  Pt  Pt296  1  0.68543196  0.37135462  0.26524418  1
  Pt  Pt297  1  0.58612499  0.28081845  0.27513910  1
  Pt  Pt298  1  0.75212803  0.30669171  0.44056751  1
  Pt  Pt299  1  0.66324686  0.22584007  0.44957447  1
  Pt  Pt300  1  0.34038811  0.77299860  0.54433184  1
  Pt  Pt301  1  0.24927483  0.69008210  0.55315142  1
  Pt  Pt302  1  0.81953554  0.43601603  0.50559606  1
  Pt  Pt303  1  0.79786169  0.44574391  0.37658808  1
  Pt  Pt304  1  0.53600085  0.17825866  0.53375412  1
  Pt  Pt305  1  0.51465334  0.18797417  0.40497105  1
  Pt  Pt306  1  0.74122379  0.70637280  0.53634923  1
  Pt  Pt307  1  0.72039967  0.71565387  0.41229224  1
  Pt  Pt308  1  0.27885002  0.28586815  0.58239965  1
  Pt  Pt309  1  0.25802297  0.29525664  0.45827308  1
  Pt  Pt310  1  0.77233753  0.66456758  0.46390729  1
  Pt  Pt311  1  0.30951281  0.24381393  0.50987882  1
  Pt  Pt312  1  0.68888425  0.75679793  0.48478679  1
  Pt  Pt313  1  0.22791094  0.33761290  0.53064699  1
  Pt  Pt314  1  0.38151537  0.70701255  0.27395444  1
  Pt  Pt315  1  0.46555394  0.66708943  0.77268586  1
  Pt  Pt316  1  0.36775543  0.57800510  0.78243944  1
  Pt  Pt317  1  0.28467103  0.61521621  0.28469602  1
  Pt  Pt318  1  0.57335597  0.80894147  0.57538918  1
  Pt  Pt319  1  0.19641488  0.46619531  0.61283364  1
  Pt  Pt320  1  0.55141250  0.81853222  0.44509224  1
  Pt  Pt321  1  0.17462451  0.47597562  0.48236360  1
