# generated using pymatgen
data_Ni76HPt245
_symmetry_space_group_name_H-M   'P 1'
_cell_length_a   30.00000000
_cell_length_b   30.00000000
_cell_length_c   30.00000000
_cell_angle_alpha   90.00000000
_cell_angle_beta   90.00000000
_cell_angle_gamma   90.00000000
_symmetry_Int_Tables_number   1
_chemical_formula_structural   Ni76HPt245
_chemical_formula_sum   'Ni76 H1 Pt245'
_cell_volume   27000.00000000
_cell_formula_units_Z   1
loop_
 _symmetry_equiv_pos_site_id
 _symmetry_equiv_pos_as_xyz
  1  'x, y, z'
loop_
 _atom_site_type_symbol
 _atom_site_label
 _atom_site_symmetry_multiplicity
 _atom_site_fract_x
 _atom_site_fract_y
 _atom_site_fract_z
 _atom_site_occupancy
  Ni  Ni0  1  0.55441020  0.44616236  0.54907688  1
  Ni  Ni1  1  0.53267311  0.45553531  0.42342420  1
  Ni  Ni2  1  0.46975108  0.54165641  0.57123830  1
  Ni  Ni3  1  0.44832193  0.55109189  0.44392673  1
  Ni  Ni4  1  0.64147041  0.44484132  0.53458090  1
  Ni  Ni5  1  0.54657360  0.35858844  0.54428254  1
  Ni  Ni6  1  0.61875061  0.45427346  0.40847228  1
  Ni  Ni7  1  0.52527276  0.36794464  0.41778908  1
  Ni  Ni8  1  0.64889167  0.53227324  0.53886370  1
  Ni  Ni9  1  0.45968081  0.36022655  0.55807981  1
  Ni  Ni10  1  0.62769306  0.54175507  0.41439791  1
  Ni  Ni11  1  0.43865182  0.36957318  0.43326038  1
  Ni  Ni12  1  0.56410032  0.62877986  0.56108424  1
  Ni  Ni13  1  0.37395721  0.45584693  0.58013210  1
  Ni  Ni14  1  0.54306403  0.63820974  0.43540818  1
  Ni  Ni15  1  0.35282495  0.46520762  0.45423015  1
  Ni  Ni16  1  0.57499654  0.43754113  0.67473033  1
  Ni  Ni17  1  0.51178431  0.46550492  0.29794924  1
  Ni  Ni18  1  0.49066483  0.53253859  0.69822563  1
  Ni  Ni19  1  0.42675819  0.56097467  0.31689624  1
  Ni  Ni20  1  0.66062631  0.43575255  0.65805632  1
  Ni  Ni21  1  0.56728956  0.35084650  0.66736229  1
  Ni  Ni22  1  0.59819379  0.46346273  0.28564176  1
  Ni  Ni23  1  0.50488767  0.37850189  0.29482716  1
  Ni  Ni24  1  0.73447275  0.53116760  0.52319061  1
  Ni  Ni25  1  0.45167338  0.27350262  0.55132775  1
  Ni  Ni26  1  0.71457962  0.54008999  0.40118867  1
  Ni  Ni27  1  0.43135766  0.28256307  0.42953257  1
  Ni  Ni28  1  0.66812427  0.52548865  0.66335056  1
  Ni  Ni29  1  0.47826040  0.35268939  0.68228656  1
  Ni  Ni30  1  0.60587485  0.55322553  0.29117366  1
  Ni  Ni31  1  0.41595574  0.38041611  0.30994746  1
  Ni  Ni32  1  0.58597557  0.61817055  0.68569809  1
  Ni  Ni33  1  0.39615648  0.44539890  0.70460905  1
  Ni  Ni34  1  0.52319121  0.64623574  0.31022608  1
  Ni  Ni35  1  0.33310166  0.47338057  0.32898315  1
  Ni  Ni36  1  0.74547050  0.61844331  0.53249710  1
  Ni  Ni37  1  0.36512636  0.27255969  0.57039919  1
  Ni  Ni38  1  0.72353581  0.62864003  0.40168263  1
  Ni  Ni39  1  0.34312151  0.28235831  0.43956316  1
  Ni  Ni40  1  0.65787587  0.71959434  0.55593438  1
  Ni  Ni41  1  0.27523503  0.37150107  0.59405328  1
  Ni  Ni42  1  0.63561962  0.72962935  0.42302259  1
  Ni  Ni43  1  0.25282415  0.38157019  0.46103418  1
  Ni  Ni44  1  0.39165243  0.73031095  0.60047469  1
  Ni  Ni45  1  0.29280066  0.64046343  0.61028735  1
  Ni  Ni46  1  0.27088871  0.65023733  0.47883624  1
  Ni  Ni47  1  0.36971728  0.74021930  0.46894390  1
  Ni  Ni48  1  0.75702412  0.52088967  0.64712019  1
  Ni  Ni49  1  0.47312311  0.26271205  0.67548621  1
  Ni  Ni50  1  0.69488284  0.54858327  0.27704404  1
  Ni  Ni51  1  0.41134359  0.29025932  0.30497218  1
  Ni  Ni52  1  0.59109231  0.43215319  0.78841684  1
  Ni  Ni53  1  0.49021651  0.47711219  0.18568984  1
  Ni  Ni54  1  0.51238426  0.52087462  0.80963048  1
  Ni  Ni55  1  0.41110264  0.56597834  0.20404758  1
  Ni  Ni56  1  0.71352430  0.26658128  0.50518268  1
  Ni  Ni57  1  0.69366067  0.27516125  0.38711179  1
  Ni  Ni58  1  0.30850023  0.72277225  0.60737023  1
  Ni  Ni59  1  0.28859144  0.73167669  0.48835181  1
  Ni  Ni60  1  0.38937170  0.27080262  0.68649761  1
  Ni  Ni61  1  0.75756943  0.60559146  0.64994068  1
  Ni  Ni62  1  0.69680919  0.63292576  0.28650631  1
  Ni  Ni63  1  0.32876559  0.29790932  0.32291361  1
  Ni  Ni64  1  0.30323794  0.36751839  0.70937110  1
  Ni  Ni65  1  0.67184547  0.70289468  0.67248999  1
  Ni  Ni66  1  0.61083740  0.73035539  0.30696271  1
  Ni  Ni67  1  0.24194626  0.39484886  0.34341298  1
  Ni  Ni68  1  0.41461904  0.71623845  0.71647104  1
  Ni  Ni69  1  0.31740826  0.62789316  0.72620605  1
  Ni  Ni70  1  0.35354040  0.74348245  0.35107514  1
  Ni  Ni71  1  0.25643627  0.65521303  0.36065511  1
  Ni  Ni72  1  0.48452608  0.80709281  0.58927208  1
  Ni  Ni73  1  0.20749271  0.55511182  0.61691049  1
  Ni  Ni74  1  0.46301092  0.81665743  0.46054760  1
  Ni  Ni75  1  0.18603887  0.56483687  0.48792606  1
  H  H76  1  0.84190660  0.43757848  0.34555656  1
  Pt  Pt77  1  0.50149381  0.49845461  0.49695009  1
  Pt  Pt78  1  0.55870088  0.53714708  0.55553026  1
  Pt  Pt79  1  0.53730475  0.54663949  0.42905730  1
  Pt  Pt80  1  0.46452881  0.45164014  0.56503108  1
  Pt  Pt81  1  0.44315765  0.46102126  0.43842427  1
  Pt  Pt82  1  0.59088383  0.49387278  0.48142859  1
  Pt  Pt83  1  0.49632059  0.40798575  0.49100466  1
  Pt  Pt84  1  0.50687398  0.58885930  0.50277230  1
  Pt  Pt85  1  0.41219459  0.50275952  0.51221163  1
  Pt  Pt86  1  0.58286339  0.40668205  0.47637840  1
  Pt  Pt87  1  0.52268118  0.48926311  0.62360836  1
  Pt  Pt88  1  0.47995681  0.50817212  0.37010843  1
  Pt  Pt89  1  0.41812415  0.59247372  0.51789774  1
  Pt  Pt90  1  0.59566901  0.58413796  0.48745803  1
  Pt  Pt91  1  0.40723764  0.41292457  0.50631033  1
  Pt  Pt92  1  0.61194949  0.48533232  0.60717200  1
  Pt  Pt93  1  0.56954764  0.50401903  0.35595733  1
  Pt  Pt94  1  0.51697681  0.39892536  0.61673060  1
  Pt  Pt95  1  0.47467756  0.41756535  0.36537887  1
  Pt  Pt96  1  0.52819425  0.57996322  0.62951040  1
  Pt  Pt97  1  0.48569925  0.59885315  0.37589401  1
  Pt  Pt98  1  0.43298500  0.49331507  0.63906640  1
  Pt  Pt99  1  0.39034258  0.51218421  0.38533370  1
  Pt  Pt100  1  0.47634131  0.63103854  0.57690394  1
  Pt  Pt101  1  0.45499614  0.64052589  0.44939988  1
  Pt  Pt102  1  0.38117119  0.54447745  0.58636800  1
  Pt  Pt103  1  0.35986111  0.55395711  0.45883188  1
  Pt  Pt104  1  0.56191485  0.41606196  0.35076732  1
  Pt  Pt105  1  0.60414878  0.39745659  0.60203940  1
  Pt  Pt106  1  0.67780323  0.49293288  0.46619101  1
  Pt  Pt107  1  0.48827021  0.32047934  0.48582664  1
  Pt  Pt108  1  0.43857323  0.58390856  0.64502271  1
  Pt  Pt109  1  0.39611342  0.60280418  0.39109526  1
  Pt  Pt110  1  0.61698471  0.57596546  0.61268645  1
  Pt  Pt111  1  0.42731247  0.40337926  0.63173735  1
  Pt  Pt112  1  0.57496818  0.59471788  0.36225759  1
  Pt  Pt113  1  0.38511617  0.42202908  0.38108263  1
  Pt  Pt114  1  0.51220871  0.67963926  0.50865341  1
  Pt  Pt115  1  0.32247739  0.50706673  0.52746383  1
  Pt  Pt116  1  0.63614488  0.35423977  0.52849796  1
  Pt  Pt117  1  0.61501066  0.36333387  0.40273838  1
  Pt  Pt118  1  0.67252869  0.40201878  0.46052618  1
  Pt  Pt119  1  0.57832935  0.31601894  0.47043998  1
  Pt  Pt120  1  0.58074855  0.52946371  0.68125983  1
  Pt  Pt121  1  0.48411725  0.44136196  0.69094903  1
  Pt  Pt122  1  0.51744380  0.55757776  0.30318126  1
  Pt  Pt123  1  0.42060664  0.46950934  0.31276221  1
  Pt  Pt124  1  0.65259708  0.62412304  0.54547456  1
  Pt  Pt125  1  0.63154720  0.63355585  0.42054202  1
  Pt  Pt126  1  0.36910535  0.36627316  0.57386753  1
  Pt  Pt127  1  0.34804598  0.37557065  0.44875208  1
  Pt  Pt128  1  0.68573293  0.58085399  0.47193825  1
  Pt  Pt129  1  0.40113297  0.32191310  0.50046781  1
  Pt  Pt130  1  0.60134308  0.67648834  0.49349065  1
  Pt  Pt131  1  0.31610881  0.41702564  0.52182918  1
  Pt  Pt132  1  0.42057498  0.68562149  0.52441585  1
  Pt  Pt133  1  0.32634697  0.59993572  0.53372651  1
  Pt  Pt134  1  0.38364982  0.63844225  0.59242735  1
  Pt  Pt135  1  0.36252085  0.64789864  0.46589339  1
  Pt  Pt136  1  0.69905188  0.48351148  0.59138195  1
  Pt  Pt137  1  0.65714393  0.50199630  0.34278926  1
  Pt  Pt138  1  0.50929647  0.31086607  0.61037078  1
  Pt  Pt139  1  0.46760890  0.32935606  0.36119797  1
  Pt  Pt140  1  0.53340365  0.67133010  0.63534998  1
  Pt  Pt141  1  0.34263573  0.49778573  0.65436924  1
  Pt  Pt142  1  0.49101765  0.69017888  0.38203228  1
  Pt  Pt143  1  0.30023065  0.51668494  0.40088118  1
  Pt  Pt144  1  0.69247519  0.39387608  0.58575281  1
  Pt  Pt145  1  0.65076913  0.41238718  0.33714572  1
  Pt  Pt146  1  0.59813314  0.30806298  0.59522975  1
  Pt  Pt147  1  0.55637100  0.32640496  0.34607367  1
  Pt  Pt148  1  0.72955549  0.44115658  0.51751857  1
  Pt  Pt149  1  0.54065348  0.26900401  0.53663866  1
  Pt  Pt150  1  0.70980632  0.45008829  0.39458302  1
  Pt  Pt151  1  0.52009720  0.27811494  0.41395189  1
  Pt  Pt152  1  0.49629342  0.62154046  0.70179903  1
  Pt  Pt153  1  0.40243012  0.53613576  0.71113968  1
  Pt  Pt154  1  0.43321902  0.64962284  0.32469908  1
  Pt  Pt155  1  0.33931940  0.56430620  0.33394536  1
  Pt  Pt156  1  0.70411925  0.57151905  0.59568050  1
  Pt  Pt157  1  0.66282834  0.58993065  0.34945618  1
  Pt  Pt158  1  0.42213600  0.31502718  0.62383500  1
  Pt  Pt159  1  0.38086943  0.33339717  0.37741256  1
  Pt  Pt160  1  0.62109595  0.66558219  0.61829271  1
  Pt  Pt161  1  0.57928881  0.68429544  0.36863209  1
  Pt  Pt162  1  0.33877634  0.40875825  0.64655022  1
  Pt  Pt163  1  0.29685624  0.42737226  0.39663120  1
  Pt  Pt164  1  0.56939511  0.71837083  0.56555259  1
  Pt  Pt165  1  0.54886107  0.72758048  0.44248473  1
  Pt  Pt166  1  0.28534495  0.45992364  0.59384316  1
  Pt  Pt167  1  0.26469245  0.46911483  0.47060259  1
  Pt  Pt168  1  0.44200731  0.67512882  0.64998749  1
  Pt  Pt169  1  0.39996583  0.69388609  0.39851002  1
  Pt  Pt170  1  0.34847235  0.59003605  0.65931448  1
  Pt  Pt171  1  0.30642106  0.60876671  0.40773119  1
  Pt  Pt172  1  0.47867555  0.72419971  0.58067296  1
  Pt  Pt173  1  0.28911878  0.55176749  0.59946658  1
  Pt  Pt174  1  0.45828482  0.73319280  0.45852587  1
  Pt  Pt175  1  0.26871441  0.56086100  0.47732242  1
  Pt  Pt176  1  0.45978101  0.51760245  0.25154707  1
  Pt  Pt177  1  0.54203118  0.48109382  0.74251876  1
  Pt  Pt178  1  0.66581957  0.31364060  0.45559135  1
  Pt  Pt179  1  0.68701381  0.66920360  0.47846378  1
  Pt  Pt180  1  0.31426949  0.33001134  0.51573699  1
  Pt  Pt181  1  0.33390454  0.68738224  0.53895583  1
  Pt  Pt182  1  0.66101991  0.34090239  0.65670556  1
  Pt  Pt183  1  0.59664114  0.36957892  0.27329112  1
  Pt  Pt184  1  0.77196372  0.48831679  0.45053339  1
  Pt  Pt185  1  0.48259896  0.22469229  0.47964157  1
  Pt  Pt186  1  0.63736026  0.47619432  0.73204851  1
  Pt  Pt187  1  0.55328412  0.51361508  0.22974882  1
  Pt  Pt188  1  0.53737147  0.38514748  0.74196763  1
  Pt  Pt189  1  0.45320315  0.42250757  0.23959729  1
  Pt  Pt190  1  0.54956171  0.57674948  0.75824069  1
  Pt  Pt191  1  0.46421154  0.61477284  0.24814864  1
  Pt  Pt192  1  0.44829977  0.48450553  0.76824404  1
  Pt  Pt193  1  0.36287033  0.52257561  0.25822657  1
  Pt  Pt194  1  0.67797807  0.61847602  0.67465204  1
  Pt  Pt195  1  0.61385436  0.64732035  0.29071688  1
  Pt  Pt196  1  0.38645933  0.35327829  0.70376702  1
  Pt  Pt197  1  0.32206911  0.38180747  0.31953413  1
  Pt  Pt198  1  0.73734910  0.34628374  0.51730915  1
  Pt  Pt199  1  0.71468639  0.35610392  0.37896006  1
  Pt  Pt200  1  0.63399375  0.25144449  0.52808559  1
  Pt  Pt201  1  0.61066223  0.26171458  0.38935506  1
  Pt  Pt202  1  0.40095155  0.63394455  0.72436552  1
  Pt  Pt203  1  0.33625097  0.66279085  0.33637163  1
  Pt  Pt204  1  0.51519708  0.78138113  0.51572055  1
  Pt  Pt205  1  0.22201631  0.51504937  0.54489636  1
  Pt  Pt206  1  0.62558809  0.38743954  0.72545141  1
  Pt  Pt207  1  0.54209431  0.42454498  0.22695784  1
  Pt  Pt208  1  0.37357666  0.61387628  0.26435373  1
  Pt  Pt209  1  0.45849396  0.57598825  0.77229445  1
  Pt  Pt210  1  0.63963465  0.56842864  0.74007862  1
  Pt  Pt211  1  0.36201137  0.43033104  0.25391780  1
  Pt  Pt212  1  0.55513982  0.60614681  0.23487166  1
  Pt  Pt213  1  0.44665146  0.39267108  0.75923662  1
  Pt  Pt214  1  0.77496843  0.57902063  0.45671594  1
  Pt  Pt215  1  0.39318995  0.23180655  0.49494125  1
  Pt  Pt216  1  0.64924510  0.31764900  0.32839931  1
  Pt  Pt217  1  0.69159021  0.29904259  0.58049995  1
  Pt  Pt218  1  0.76710580  0.39548011  0.44407920  1
  Pt  Pt219  1  0.57483684  0.22016867  0.46397149  1
  Pt  Pt220  1  0.28786028  0.33609941  0.38876597  1
  Pt  Pt221  1  0.66971536  0.68337896  0.35102452  1
  Pt  Pt222  1  0.33057633  0.31709263  0.64354940  1
  Pt  Pt223  1  0.71233599  0.66422091  0.60552005  1
  Pt  Pt224  1  0.60609361  0.77255751  0.49992795  1
  Pt  Pt225  1  0.22143145  0.42265886  0.53801909  1
  Pt  Pt226  1  0.35083435  0.68257131  0.66620805  1
  Pt  Pt227  1  0.30871268  0.70144267  0.41386778  1
  Pt  Pt228  1  0.42570151  0.78032592  0.53052789  1
  Pt  Pt229  1  0.23283023  0.60497114  0.54976610  1
  Pt  Pt230  1  0.75683923  0.43324164  0.64484600  1
  Pt  Pt231  1  0.55975511  0.25393872  0.66447188  1
  Pt  Pt232  1  0.69317030  0.46143277  0.26663228  1
  Pt  Pt233  1  0.49664832  0.28214569  0.28588580  1
  Pt  Pt234  1  0.79172653  0.48073473  0.57944752  1
  Pt  Pt235  1  0.74868414  0.49998808  0.32277796  1
  Pt  Pt236  1  0.50250320  0.21756576  0.60843281  1
  Pt  Pt237  1  0.45975176  0.23662354  0.35155720  1
  Pt  Pt238  1  0.58963325  0.71426918  0.69455030  1
  Pt  Pt239  1  0.52612359  0.74263604  0.31466848  1
  Pt  Pt240  1  0.30158899  0.45232644  0.72331488  1
  Pt  Pt241  1  0.23797759  0.48061964  0.34306421  1
  Pt  Pt242  1  0.50012395  0.72100995  0.71100239  1
  Pt  Pt243  1  0.30455564  0.54314496  0.73047765  1
  Pt  Pt244  1  0.43633758  0.74939534  0.32929436  1
  Pt  Pt245  1  0.24082817  0.57160710  0.34850499  1
  Pt  Pt246  1  0.53715502  0.76668583  0.64390960  1
  Pt  Pt247  1  0.49418336  0.78586111  0.38660450  1
  Pt  Pt248  1  0.24881729  0.50437374  0.67260873  1
  Pt  Pt249  1  0.20582790  0.52365213  0.41503342  1
  Pt  Pt250  1  0.44614510  0.33632332  0.24149311  1
  Pt  Pt251  1  0.72124560  0.47600933  0.71089114  1
  Pt  Pt252  1  0.52767670  0.29995119  0.73018496  1
  Pt  Pt253  1  0.63941685  0.51248093  0.22233526  1
  Pt  Pt254  1  0.79091932  0.56854035  0.58344634  1
  Pt  Pt255  1  0.74891282  0.58723519  0.33259405  1
  Pt  Pt256  1  0.41607001  0.22764073  0.62077464  1
  Pt  Pt257  1  0.37424190  0.24638516  0.36956139  1
  Pt  Pt258  1  0.55238186  0.66500439  0.75724205  1
  Pt  Pt259  1  0.46942352  0.70200300  0.26097656  1
  Pt  Pt260  1  0.36054565  0.49044023  0.77636601  1
  Pt  Pt261  1  0.27741870  0.52747090  0.27982551  1
  Pt  Pt262  1  0.78620342  0.39154591  0.57283446  1
  Pt  Pt263  1  0.74370315  0.41044606  0.31792881  1
  Pt  Pt264  1  0.54802199  0.23233226  0.33735522  1
  Pt  Pt265  1  0.59051819  0.21340305  0.59255426  1
  Pt  Pt266  1  0.58306453  0.77555801  0.37379495  1
  Pt  Pt267  1  0.62507090  0.75668417  0.62554317  1
  Pt  Pt268  1  0.24904288  0.41451164  0.66310688  1
  Pt  Pt269  1  0.20680217  0.43336650  0.41100105  1
  Pt  Pt270  1  0.44824495  0.76548968  0.65437675  1
  Pt  Pt271  1  0.21741735  0.61190712  0.42403805  1
  Pt  Pt272  1  0.40670103  0.78401480  0.40541037  1
  Pt  Pt273  1  0.25897307  0.59332354  0.67319930  1
  Pt  Pt274  1  0.71302666  0.38942190  0.70830787  1
  Pt  Pt275  1  0.63039271  0.42613248  0.21505708  1
  Pt  Pt276  1  0.61384057  0.29930060  0.71807436  1
  Pt  Pt277  1  0.53147909  0.33601869  0.22467585  1
  Pt  Pt278  1  0.82172677  0.52836582  0.51165135  1
  Pt  Pt279  1  0.44522664  0.18589318  0.54937991  1
  Pt  Pt280  1  0.80097468  0.53760504  0.38345983  1
  Pt  Pt281  1  0.42393948  0.19544218  0.42078022  1
  Pt  Pt282  1  0.59805730  0.51672594  0.80105720  1
  Pt  Pt283  1  0.50810023  0.43481892  0.80996667  1
  Pt  Pt284  1  0.49478961  0.56272808  0.18386802  1
  Pt  Pt285  1  0.40479552  0.48084756  0.19278388  1
  Pt  Pt286  1  0.72665555  0.56052035  0.71666485  1
  Pt  Pt287  1  0.64498395  0.59709542  0.22744091  1
  Pt  Pt288  1  0.36244537  0.33988300  0.25542836  1
  Pt  Pt289  1  0.44407064  0.30339759  0.74486134  1
  Pt  Pt290  1  0.63782072  0.65769258  0.74153834  1
  Pt  Pt291  1  0.55510446  0.69469909  0.24692726  1
  Pt  Pt292  1  0.35850933  0.40361987  0.76935372  1
  Pt  Pt293  1  0.27566018  0.44047331  0.27452322  1
  Pt  Pt294  1  0.74745706  0.34394721  0.63558321  1
  Pt  Pt295  1  0.64806497  0.25355477  0.64539299  1
  Pt  Pt296  1  0.68530625  0.37130123  0.26546910  1
  Pt  Pt297  1  0.58626666  0.28104243  0.27503992  1
  Pt  Pt298  1  0.75237645  0.30670473  0.44061122  1
  Pt  Pt299  1  0.66320032  0.22584453  0.44959902  1
  Pt  Pt300  1  0.34055498  0.77294659  0.54425526  1
  Pt  Pt301  1  0.24920102  0.68991881  0.55334815  1
  Pt  Pt302  1  0.81913269  0.43618777  0.50558265  1
  Pt  Pt303  1  0.79958441  0.44591272  0.37497293  1
  Pt  Pt304  1  0.53614459  0.17850363  0.53399398  1
  Pt  Pt305  1  0.51468626  0.18816958  0.40480911  1
  Pt  Pt306  1  0.74134660  0.70618072  0.53640730  1
  Pt  Pt307  1  0.72063844  0.71576701  0.41225171  1
  Pt  Pt308  1  0.27896700  0.28563909  0.58249592  1
  Pt  Pt309  1  0.25822281  0.29507440  0.45820034  1
  Pt  Pt310  1  0.77241975  0.66439736  0.46390286  1
  Pt  Pt311  1  0.30971577  0.24360479  0.50993814  1
  Pt  Pt312  1  0.68912987  0.75682961  0.48482003  1
  Pt  Pt313  1  0.22801360  0.33734302  0.53065750  1
  Pt  Pt314  1  0.38249584  0.70418223  0.27506688  1
  Pt  Pt315  1  0.46567746  0.66706275  0.77257298  1
  Pt  Pt316  1  0.36768746  0.57796886  0.78231826  1
  Pt  Pt317  1  0.28458461  0.61516045  0.28469937  1
  Pt  Pt318  1  0.57346022  0.80894134  0.57536166  1
  Pt  Pt319  1  0.19645296  0.46565513  0.61286467  1
  Pt  Pt320  1  0.55173165  0.81865435  0.44506324  1
  Pt  Pt321  1  0.17464106  0.47572493  0.48234965  1
