# generated using pymatgen
data_Ni76HPt245
_symmetry_space_group_name_H-M   'P 1'
_cell_length_a   30.00000000
_cell_length_b   30.00000000
_cell_length_c   30.00000000
_cell_angle_alpha   90.00000000
_cell_angle_beta   90.00000000
_cell_angle_gamma   90.00000000
_symmetry_Int_Tables_number   1
_chemical_formula_structural   Ni76HPt245
_chemical_formula_sum   'Ni76 H1 Pt245'
_cell_volume   27000.00000000
_cell_formula_units_Z   1
loop_
 _symmetry_equiv_pos_site_id
 _symmetry_equiv_pos_as_xyz
  1  'x, y, z'
loop_
 _atom_site_type_symbol
 _atom_site_label
 _atom_site_symmetry_multiplicity
 _atom_site_fract_x
 _atom_site_fract_y
 _atom_site_fract_z
 _atom_site_occupancy
  Ni  Ni0  1  0.55437094  0.44618060  0.54912604  1
  Ni  Ni1  1  0.53326281  0.45545616  0.42335745  1
  Ni  Ni2  1  0.46970116  0.54141289  0.57124649  1
  Ni  Ni3  1  0.44836158  0.55107044  0.44389696  1
  Ni  Ni4  1  0.64131727  0.44481250  0.53485210  1
  Ni  Ni5  1  0.54647181  0.35855202  0.54429923  1
  Ni  Ni6  1  0.62021855  0.45418127  0.40834995  1
  Ni  Ni7  1  0.52536583  0.36787236  0.41778418  1
  Ni  Ni8  1  0.64877545  0.53245866  0.53912505  1
  Ni  Ni9  1  0.45964763  0.36025914  0.55806416  1
  Ni  Ni10  1  0.62778569  0.54175351  0.41446546  1
  Ni  Ni11  1  0.43870350  0.36952631  0.43321396  1
  Ni  Ni12  1  0.56404036  0.62876665  0.56106045  1
  Ni  Ni13  1  0.37400313  0.45587801  0.58010614  1
  Ni  Ni14  1  0.54298813  0.63903390  0.43516362  1
  Ni  Ni15  1  0.35289078  0.46521984  0.45426516  1
  Ni  Ni16  1  0.57494790  0.43745227  0.67474706  1
  Ni  Ni17  1  0.51172179  0.46540892  0.29798666  1
  Ni  Ni18  1  0.49065412  0.53241735  0.69829944  1
  Ni  Ni19  1  0.42680894  0.56085662  0.31697351  1
  Ni  Ni20  1  0.66058656  0.43578037  0.65814059  1
  Ni  Ni21  1  0.56722213  0.35074545  0.66740160  1
  Ni  Ni22  1  0.59817928  0.46337862  0.28554073  1
  Ni  Ni23  1  0.50479793  0.37842969  0.29476744  1
  Ni  Ni24  1  0.73461256  0.53106775  0.52300717  1
  Ni  Ni25  1  0.45165955  0.27345975  0.55137187  1
  Ni  Ni26  1  0.71426607  0.54007545  0.40134938  1
  Ni  Ni27  1  0.43133461  0.28251969  0.42953734  1
  Ni  Ni28  1  0.66813957  0.52552120  0.66337160  1
  Ni  Ni29  1  0.47821059  0.35265677  0.68237684  1
  Ni  Ni30  1  0.60568397  0.55314682  0.29122669  1
  Ni  Ni31  1  0.41594441  0.38034424  0.30997567  1
  Ni  Ni32  1  0.58599156  0.61810869  0.68574084  1
  Ni  Ni33  1  0.39615911  0.44550626  0.70461766  1
  Ni  Ni34  1  0.52323763  0.64630825  0.31044339  1
  Ni  Ni35  1  0.33328613  0.47335827  0.32902230  1
  Ni  Ni36  1  0.74526592  0.61852363  0.53249360  1
  Ni  Ni37  1  0.36513288  0.27256214  0.57036740  1
  Ni  Ni38  1  0.72352808  0.62851650  0.40163292  1
  Ni  Ni39  1  0.34309345  0.28243484  0.43959291  1
  Ni  Ni40  1  0.65784275  0.71955306  0.55594694  1
  Ni  Ni41  1  0.27526847  0.37151081  0.59400389  1
  Ni  Ni42  1  0.63525058  0.72971503  0.42285899  1
  Ni  Ni43  1  0.25289817  0.38160814  0.46108633  1
  Ni  Ni44  1  0.39163158  0.73018326  0.60046775  1
  Ni  Ni45  1  0.29282222  0.64046174  0.61030559  1
  Ni  Ni46  1  0.27089976  0.65018997  0.47888609  1
  Ni  Ni47  1  0.36985207  0.74021097  0.46903007  1
  Ni  Ni48  1  0.75690843  0.52091113  0.64721741  1
  Ni  Ni49  1  0.47307339  0.26270222  0.67552283  1
  Ni  Ni50  1  0.69479068  0.54855992  0.27683979  1
  Ni  Ni51  1  0.41122251  0.29023180  0.30496871  1
  Ni  Ni52  1  0.59106691  0.43210765  0.78849489  1
  Ni  Ni53  1  0.49027016  0.47701652  0.18576463  1
  Ni  Ni54  1  0.51238815  0.52089144  0.80965072  1
  Ni  Ni55  1  0.41107575  0.56591640  0.20408169  1
  Ni  Ni56  1  0.71341715  0.26660183  0.50533982  1
  Ni  Ni57  1  0.69352818  0.27536659  0.38700405  1
  Ni  Ni58  1  0.30847032  0.72267509  0.60736823  1
  Ni  Ni59  1  0.28860477  0.73156664  0.48832158  1
  Ni  Ni60  1  0.38930889  0.27077363  0.68659297  1
  Ni  Ni61  1  0.75747452  0.60557456  0.64989121  1
  Ni  Ni62  1  0.69650636  0.63280742  0.28633405  1
  Ni  Ni63  1  0.32864767  0.29795448  0.32296463  1
  Ni  Ni64  1  0.30316776  0.36750498  0.70939131  1
  Ni  Ni65  1  0.67179404  0.70299995  0.67250943  1
  Ni  Ni66  1  0.61099196  0.73029589  0.30640523  1
  Ni  Ni67  1  0.24200718  0.39487963  0.34337346  1
  Ni  Ni68  1  0.41453810  0.71621461  0.71663478  1
  Ni  Ni69  1  0.31730899  0.62796871  0.72627026  1
  Ni  Ni70  1  0.35341173  0.74324433  0.35110839  1
  Ni  Ni71  1  0.25649196  0.65519783  0.36070211  1
  Ni  Ni72  1  0.48440503  0.80692197  0.58915597  1
  Ni  Ni73  1  0.20745444  0.55511736  0.61688562  1
  Ni  Ni74  1  0.46281279  0.81626003  0.46075664  1
  Ni  Ni75  1  0.18599252  0.56475610  0.48798650  1
  H  H76  1  0.59449591  0.82183127  0.34653020  1
  Pt  Pt77  1  0.50164042  0.49841241  0.49684538  1
  Pt  Pt78  1  0.55869596  0.53721430  0.55554154  1
  Pt  Pt79  1  0.53740873  0.54674593  0.42906533  1
  Pt  Pt80  1  0.46454712  0.45157328  0.56499966  1
  Pt  Pt81  1  0.44334746  0.46099299  0.43840549  1
  Pt  Pt82  1  0.59098638  0.49397440  0.48151084  1
  Pt  Pt83  1  0.49646317  0.40799988  0.49090041  1
  Pt  Pt84  1  0.50685898  0.58879996  0.50269025  1
  Pt  Pt85  1  0.41225164  0.50270321  0.51212711  1
  Pt  Pt86  1  0.58298398  0.40677645  0.47638817  1
  Pt  Pt87  1  0.52267784  0.48922488  0.62363331  1
  Pt  Pt88  1  0.48013610  0.50812226  0.37013269  1
  Pt  Pt89  1  0.41811315  0.59240131  0.51781534  1
  Pt  Pt90  1  0.59554741  0.58438316  0.48736111  1
  Pt  Pt91  1  0.40736383  0.41288308  0.50621816  1
  Pt  Pt92  1  0.61192280  0.48533012  0.60725109  1
  Pt  Pt93  1  0.56970534  0.50375834  0.35607933  1
  Pt  Pt94  1  0.51691082  0.39884068  0.61677135  1
  Pt  Pt95  1  0.47478962  0.41752438  0.36541242  1
  Pt  Pt96  1  0.52827095  0.57981611  0.62967019  1
  Pt  Pt97  1  0.48575067  0.59890899  0.37595867  1
  Pt  Pt98  1  0.43295685  0.49322967  0.63909827  1
  Pt  Pt99  1  0.39045857  0.51212025  0.38537296  1
  Pt  Pt100  1  0.47619704  0.63054274  0.57717293  1
  Pt  Pt101  1  0.45511741  0.64052034  0.44927280  1
  Pt  Pt102  1  0.38120181  0.54447456  0.58637014  1
  Pt  Pt103  1  0.35989415  0.55389683  0.45880189  1
  Pt  Pt104  1  0.56197836  0.41601434  0.35065952  1
  Pt  Pt105  1  0.60408473  0.39740099  0.60208304  1
  Pt  Pt106  1  0.67782502  0.49302540  0.46689898  1
  Pt  Pt107  1  0.48821414  0.32043782  0.48582320  1
  Pt  Pt108  1  0.43859484  0.58384937  0.64509272  1
  Pt  Pt109  1  0.39613595  0.60276181  0.39107981  1
  Pt  Pt110  1  0.61697542  0.57599777  0.61273828  1
  Pt  Pt111  1  0.42728927  0.40328540  0.63177621  1
  Pt  Pt112  1  0.57490297  0.59446154  0.36234702  1
  Pt  Pt113  1  0.38524233  0.42199670  0.38110909  1
  Pt  Pt114  1  0.51201941  0.67916878  0.50898654  1
  Pt  Pt115  1  0.32245074  0.50709224  0.52748934  1
  Pt  Pt116  1  0.63612093  0.35406647  0.52868395  1
  Pt  Pt117  1  0.61506448  0.36343645  0.40272016  1
  Pt  Pt118  1  0.67256039  0.40179300  0.46108658  1
  Pt  Pt119  1  0.57825518  0.31605512  0.47046257  1
  Pt  Pt120  1  0.58078788  0.52936723  0.68135794  1
  Pt  Pt121  1  0.48410749  0.44132252  0.69097860  1
  Pt  Pt122  1  0.51740550  0.55764775  0.30325559  1
  Pt  Pt123  1  0.42067195  0.46943730  0.31279571  1
  Pt  Pt124  1  0.65238150  0.62437983  0.54541530  1
  Pt  Pt125  1  0.63130879  0.63383349  0.42030270  1
  Pt  Pt126  1  0.36912356  0.36629006  0.57385918  1
  Pt  Pt127  1  0.34806902  0.37558507  0.44875408  1
  Pt  Pt128  1  0.68559672  0.58100773  0.47191981  1
  Pt  Pt129  1  0.40109511  0.32185967  0.50049549  1
  Pt  Pt130  1  0.60101738  0.67692899  0.49314320  1
  Pt  Pt131  1  0.31613945  0.41709170  0.52184587  1
  Pt  Pt132  1  0.42064383  0.68550352  0.52432072  1
  Pt  Pt133  1  0.32635995  0.59992965  0.53371457  1
  Pt  Pt134  1  0.38361289  0.63840137  0.59240994  1
  Pt  Pt135  1  0.36259681  0.64785635  0.46587796  1
  Pt  Pt136  1  0.69902470  0.48354158  0.59141112  1
  Pt  Pt137  1  0.65720504  0.50204584  0.34234469  1
  Pt  Pt138  1  0.50924079  0.31081602  0.61040244  1
  Pt  Pt139  1  0.46753997  0.32933778  0.36120915  1
  Pt  Pt140  1  0.53328354  0.67115386  0.63538765  1
  Pt  Pt141  1  0.34263974  0.49785366  0.65435167  1
  Pt  Pt142  1  0.49111361  0.69049325  0.38171533  1
  Pt  Pt143  1  0.30025583  0.51670039  0.40092591  1
  Pt  Pt144  1  0.69244253  0.39380765  0.58589068  1
  Pt  Pt145  1  0.65070319  0.41236435  0.33666658  1
  Pt  Pt146  1  0.59803185  0.30791949  0.59532938  1
  Pt  Pt147  1  0.55631119  0.32647583  0.34610358  1
  Pt  Pt148  1  0.72968765  0.44101507  0.51773911  1
  Pt  Pt149  1  0.54060414  0.26894514  0.53664106  1
  Pt  Pt150  1  0.70914428  0.45013348  0.39511401  1
  Pt  Pt151  1  0.52006923  0.27809368  0.41395128  1
  Pt  Pt152  1  0.49629754  0.62149141  0.70188376  1
  Pt  Pt153  1  0.40243153  0.53615392  0.71112748  1
  Pt  Pt154  1  0.43320366  0.64949990  0.32471027  1
  Pt  Pt155  1  0.33935924  0.56423627  0.33397835  1
  Pt  Pt156  1  0.70396600  0.57162470  0.59558269  1
  Pt  Pt157  1  0.66270351  0.58994350  0.34945410  1
  Pt  Pt158  1  0.42207157  0.31496847  0.62391964  1
  Pt  Pt159  1  0.38085769  0.33337860  0.37744375  1
  Pt  Pt160  1  0.62101114  0.66559985  0.61839404  1
  Pt  Pt161  1  0.57934431  0.68509774  0.36845127  1
  Pt  Pt162  1  0.33878694  0.40876902  0.64656349  1
  Pt  Pt163  1  0.29691402  0.42741360  0.39665494  1
  Pt  Pt164  1  0.56933303  0.71822660  0.56557785  1
  Pt  Pt165  1  0.54900032  0.72847214  0.44173820  1
  Pt  Pt166  1  0.28530598  0.45991361  0.59385147  1
  Pt  Pt167  1  0.26471236  0.46911069  0.47062765  1
  Pt  Pt168  1  0.44188709  0.67504346  0.65013619  1
  Pt  Pt169  1  0.40009937  0.69380096  0.39849850  1
  Pt  Pt170  1  0.34842379  0.59014498  0.65936844  1
  Pt  Pt171  1  0.30638459  0.60871027  0.40782153  1
  Pt  Pt172  1  0.47851262  0.72393838  0.58078683  1
  Pt  Pt173  1  0.28910285  0.55180275  0.59949610  1
  Pt  Pt174  1  0.45851293  0.73294759  0.45841405  1
  Pt  Pt175  1  0.26870950  0.56085235  0.47741250  1
  Pt  Pt176  1  0.45981203  0.51756042  0.25159328  1
  Pt  Pt177  1  0.54204033  0.48102015  0.74258227  1
  Pt  Pt178  1  0.66563398  0.31362725  0.45567849  1
  Pt  Pt179  1  0.68686579  0.66922674  0.47843295  1
  Pt  Pt180  1  0.31421233  0.33007507  0.51574335  1
  Pt  Pt181  1  0.33394328  0.68734685  0.53894861  1
  Pt  Pt182  1  0.66097530  0.34087323  0.65676421  1
  Pt  Pt183  1  0.59665126  0.36930727  0.27301201  1
  Pt  Pt184  1  0.77250972  0.48843107  0.45068674  1
  Pt  Pt185  1  0.48256426  0.22467420  0.47965398  1
  Pt  Pt186  1  0.63735801  0.47611081  0.73214540  1
  Pt  Pt187  1  0.55319550  0.51352667  0.22992143  1
  Pt  Pt188  1  0.53732156  0.38509324  0.74195672  1
  Pt  Pt189  1  0.45319349  0.42248619  0.23963607  1
  Pt  Pt190  1  0.54960103  0.57674466  0.75830768  1
  Pt  Pt191  1  0.46413107  0.61467230  0.24812902  1
  Pt  Pt192  1  0.44826811  0.48450653  0.76826567  1
  Pt  Pt193  1  0.36289973  0.52245777  0.25826588  1
  Pt  Pt194  1  0.67809716  0.61857224  0.67475940  1
  Pt  Pt195  1  0.61350886  0.64718041  0.29114264  1
  Pt  Pt196  1  0.38640858  0.35321969  0.70382365  1
  Pt  Pt197  1  0.32217857  0.38187073  0.31961944  1
  Pt  Pt198  1  0.73808031  0.34594868  0.51772201  1
  Pt  Pt199  1  0.71458638  0.35638552  0.37886411  1
  Pt  Pt200  1  0.63395996  0.25139295  0.52824047  1
  Pt  Pt201  1  0.61059134  0.26175574  0.38935406  1
  Pt  Pt202  1  0.40081194  0.63400588  0.72453110  1
  Pt  Pt203  1  0.33634994  0.66254887  0.33647024  1
  Pt  Pt204  1  0.51518593  0.78034253  0.51578433  1
  Pt  Pt205  1  0.22197733  0.51501296  0.54492820  1
  Pt  Pt206  1  0.62552022  0.38738752  0.72550482  1
  Pt  Pt207  1  0.54207628  0.42443468  0.22699256  1
  Pt  Pt208  1  0.37354093  0.61373345  0.26431468  1
  Pt  Pt209  1  0.45850263  0.57598404  0.77233474  1
  Pt  Pt210  1  0.63965763  0.56840761  0.74006656  1
  Pt  Pt211  1  0.36206185  0.43026511  0.25386026  1
  Pt  Pt212  1  0.55494874  0.60604504  0.23488380  1
  Pt  Pt213  1  0.44659050  0.39267970  0.75932177  1
  Pt  Pt214  1  0.77502065  0.57920806  0.45697140  1
  Pt  Pt215  1  0.39313986  0.23177073  0.49490274  1
  Pt  Pt216  1  0.64920885  0.31762275  0.32837197  1
  Pt  Pt217  1  0.69152007  0.29902137  0.58060845  1
  Pt  Pt218  1  0.76708291  0.39508419  0.44473607  1
  Pt  Pt219  1  0.57483094  0.22015830  0.46398375  1
  Pt  Pt220  1  0.28785848  0.33613570  0.38881760  1
  Pt  Pt221  1  0.66980497  0.68332737  0.35092820  1
  Pt  Pt222  1  0.33055620  0.31709447  0.64358127  1
  Pt  Pt223  1  0.71221469  0.66427409  0.60547447  1
  Pt  Pt224  1  0.60622168  0.77256905  0.49999193  1
  Pt  Pt225  1  0.22142420  0.42262772  0.53803778  1
  Pt  Pt226  1  0.35081760  0.68262358  0.66625521  1
  Pt  Pt227  1  0.30879462  0.70139018  0.41390649  1
  Pt  Pt228  1  0.42557293  0.78011133  0.53052777  1
  Pt  Pt229  1  0.23280019  0.60494360  0.54975903  1
  Pt  Pt230  1  0.75677750  0.43321568  0.64492386  1
  Pt  Pt231  1  0.55972188  0.25382637  0.66455401  1
  Pt  Pt232  1  0.69338494  0.46129848  0.26633851  1
  Pt  Pt233  1  0.49650919  0.28215398  0.28589639  1
  Pt  Pt234  1  0.79172118  0.48070316  0.57962947  1
  Pt  Pt235  1  0.74869062  0.49977054  0.32281652  1
  Pt  Pt236  1  0.50246245  0.21752584  0.60843182  1
  Pt  Pt237  1  0.45968489  0.23663723  0.35157982  1
  Pt  Pt238  1  0.58950838  0.71430699  0.69451645  1
  Pt  Pt239  1  0.52596233  0.74295304  0.31408591  1
  Pt  Pt240  1  0.30160953  0.45231988  0.72328145  1
  Pt  Pt241  1  0.23807370  0.48069124  0.34306446  1
  Pt  Pt242  1  0.50008945  0.72096200  0.71101847  1
  Pt  Pt243  1  0.30460498  0.54309821  0.73048546  1
  Pt  Pt244  1  0.43622431  0.74953395  0.32908252  1
  Pt  Pt245  1  0.24080809  0.57164151  0.34850090  1
  Pt  Pt246  1  0.53703167  0.76661976  0.64379446  1
  Pt  Pt247  1  0.49389744  0.78609035  0.38639838  1
  Pt  Pt248  1  0.24877815  0.50441887  0.67260625  1
  Pt  Pt249  1  0.20581924  0.52367449  0.41508162  1
  Pt  Pt250  1  0.44597772  0.33628800  0.24143091  1
  Pt  Pt251  1  0.72121707  0.47605454  0.71096982  1
  Pt  Pt252  1  0.52763067  0.29988097  0.73022789  1
  Pt  Pt253  1  0.63936883  0.51243188  0.22240372  1
  Pt  Pt254  1  0.79071602  0.56852270  0.58341442  1
  Pt  Pt255  1  0.74863748  0.58717580  0.33225602  1
  Pt  Pt256  1  0.41599437  0.22759974  0.62083991  1
  Pt  Pt257  1  0.37416513  0.24637557  0.36958139  1
  Pt  Pt258  1  0.55235853  0.66503513  0.75730322  1
  Pt  Pt259  1  0.46930515  0.70176084  0.26103847  1
  Pt  Pt260  1  0.36051358  0.49043518  0.77644977  1
  Pt  Pt261  1  0.27745891  0.52753720  0.27981327  1
  Pt  Pt262  1  0.78641655  0.39153206  0.57311702  1
  Pt  Pt263  1  0.74368391  0.41045224  0.31790034  1
  Pt  Pt264  1  0.54800726  0.23237342  0.33732026  1
  Pt  Pt265  1  0.59045622  0.21332192  0.59261996  1
  Pt  Pt266  1  0.58354568  0.77762391  0.37225326  1
  Pt  Pt267  1  0.62495877  0.75673293  0.62549506  1
  Pt  Pt268  1  0.24900784  0.41451156  0.66306935  1
  Pt  Pt269  1  0.20682593  0.43342935  0.41100007  1
  Pt  Pt270  1  0.44816866  0.76538671  0.65437505  1
  Pt  Pt271  1  0.21736806  0.61193860  0.42411152  1
  Pt  Pt272  1  0.40658432  0.78384219  0.40528703  1
  Pt  Pt273  1  0.25892973  0.59331764  0.67324385  1
  Pt  Pt274  1  0.71295091  0.38946424  0.70839947  1
  Pt  Pt275  1  0.63037157  0.42610588  0.21495220  1
  Pt  Pt276  1  0.61379365  0.29928917  0.71816562  1
  Pt  Pt277  1  0.53128795  0.33596559  0.22464961  1
  Pt  Pt278  1  0.82174777  0.52838447  0.51187090  1
  Pt  Pt279  1  0.44517192  0.18593265  0.54937782  1
  Pt  Pt280  1  0.80025226  0.53788695  0.38326339  1
  Pt  Pt281  1  0.42394687  0.19540819  0.42073654  1
  Pt  Pt282  1  0.59811468  0.51672422  0.80107550  1
  Pt  Pt283  1  0.50808909  0.43483551  0.80996594  1
  Pt  Pt284  1  0.49475376  0.56261172  0.18382435  1
  Pt  Pt285  1  0.40479594  0.48080481  0.19277060  1
  Pt  Pt286  1  0.72669159  0.56055006  0.71681633  1
  Pt  Pt287  1  0.64450394  0.59711104  0.22746360  1
  Pt  Pt288  1  0.36233485  0.33986190  0.25542151  1
  Pt  Pt289  1  0.44405492  0.30337846  0.74493928  1
  Pt  Pt290  1  0.63770052  0.65772894  0.74146856  1
  Pt  Pt291  1  0.55499549  0.69443916  0.24677191  1
  Pt  Pt292  1  0.35849491  0.40362934  0.76934409  1
  Pt  Pt293  1  0.27579147  0.44054116  0.27456184  1
  Pt  Pt294  1  0.74741098  0.34389538  0.63575967  1
  Pt  Pt295  1  0.64803307  0.25347424  0.64549083  1
  Pt  Pt296  1  0.68529736  0.37130211  0.26521410  1
  Pt  Pt297  1  0.58610089  0.28100151  0.27497188  1
  Pt  Pt298  1  0.75202554  0.30673536  0.44061141  1
  Pt  Pt299  1  0.66320980  0.22596012  0.44962172  1
  Pt  Pt300  1  0.34045670  0.77289608  0.54427804  1
  Pt  Pt301  1  0.24918906  0.68988779  0.55337958  1
  Pt  Pt302  1  0.81933404  0.43613826  0.50579218  1
  Pt  Pt303  1  0.79768271  0.44571442  0.37652166  1
  Pt  Pt304  1  0.53612857  0.17846399  0.53402806  1
  Pt  Pt305  1  0.51473275  0.18822106  0.40478673  1
  Pt  Pt306  1  0.74133183  0.70625711  0.53640696  1
  Pt  Pt307  1  0.72041796  0.71566358  0.41221334  1
  Pt  Pt308  1  0.27897574  0.28566003  0.58249974  1
  Pt  Pt309  1  0.25815762  0.29510267  0.45822824  1
  Pt  Pt310  1  0.77230550  0.66450269  0.46390397  1
  Pt  Pt311  1  0.30968681  0.24365248  0.50991565  1
  Pt  Pt312  1  0.68912335  0.75673898  0.48479149  1
  Pt  Pt313  1  0.22793782  0.33731981  0.53067641  1
  Pt  Pt314  1  0.38237189  0.70398626  0.27509128  1
  Pt  Pt315  1  0.46562998  0.66709566  0.77256810  1
  Pt  Pt316  1  0.36766339  0.57793746  0.78235232  1
  Pt  Pt317  1  0.28456076  0.61518427  0.28471161  1
  Pt  Pt318  1  0.57334122  0.80893667  0.57523185  1
  Pt  Pt319  1  0.19634857  0.46571347  0.61290323  1
  Pt  Pt320  1  0.55102731  0.81848508  0.44554531  1
  Pt  Pt321  1  0.17465740  0.47570151  0.48236951  1
