# generated using pymatgen
data_Ni76HPt245
_symmetry_space_group_name_H-M   'P 1'
_cell_length_a   30.00000000
_cell_length_b   30.00000000
_cell_length_c   30.00000000
_cell_angle_alpha   90.00000000
_cell_angle_beta   90.00000000
_cell_angle_gamma   90.00000000
_symmetry_Int_Tables_number   1
_chemical_formula_structural   Ni76HPt245
_chemical_formula_sum   'Ni76 H1 Pt245'
_cell_volume   27000.00000000
_cell_formula_units_Z   1
loop_
 _symmetry_equiv_pos_site_id
 _symmetry_equiv_pos_as_xyz
  1  'x, y, z'
loop_
 _atom_site_type_symbol
 _atom_site_label
 _atom_site_symmetry_multiplicity
 _atom_site_fract_x
 _atom_site_fract_y
 _atom_site_fract_z
 _atom_site_occupancy
  Ni  Ni0  1  0.55444040  0.44613297  0.54912844  1
  Ni  Ni1  1  0.53324253  0.45544047  0.42360591  1
  Ni  Ni2  1  0.46973126  0.54168913  0.57130314  1
  Ni  Ni3  1  0.44836792  0.55125539  0.44399270  1
  Ni  Ni4  1  0.64129906  0.44468489  0.53478965  1
  Ni  Ni5  1  0.54658140  0.35848621  0.54428602  1
  Ni  Ni6  1  0.61998744  0.45379467  0.40840041  1
  Ni  Ni7  1  0.52552855  0.36790044  0.41811122  1
  Ni  Ni8  1  0.64873350  0.53227504  0.53911969  1
  Ni  Ni9  1  0.45977621  0.36035162  0.55807178  1
  Ni  Ni10  1  0.62777014  0.54136758  0.41452902  1
  Ni  Ni11  1  0.43888884  0.36973839  0.43342204  1
  Ni  Ni12  1  0.56399650  0.62869438  0.56114695  1
  Ni  Ni13  1  0.37390672  0.45605450  0.58020365  1
  Ni  Ni14  1  0.54289337  0.63805046  0.43539683  1
  Ni  Ni15  1  0.35276106  0.46545556  0.45437824  1
  Ni  Ni16  1  0.57504095  0.43739119  0.67461660  1
  Ni  Ni17  1  0.51161170  0.46504105  0.29825855  1
  Ni  Ni18  1  0.49077394  0.53244595  0.69825155  1
  Ni  Ni19  1  0.42699310  0.56084208  0.31683515  1
  Ni  Ni20  1  0.66078105  0.43564588  0.65785498  1
  Ni  Ni21  1  0.56731604  0.35054342  0.66718244  1
  Ni  Ni22  1  0.59814640  0.46268132  0.28599569  1
  Ni  Ni23  1  0.50513931  0.37786746  0.29461103  1
  Ni  Ni24  1  0.73473714  0.53109222  0.52292945  1
  Ni  Ni25  1  0.45155284  0.27340791  0.55123973  1
  Ni  Ni26  1  0.71450417  0.54021454  0.40150046  1
  Ni  Ni27  1  0.43151066  0.28253211  0.42966055  1
  Ni  Ni28  1  0.66826742  0.52540374  0.66313126  1
  Ni  Ni29  1  0.47825858  0.35256326  0.68208174  1
  Ni  Ni30  1  0.60591289  0.55273921  0.29145667  1
  Ni  Ni31  1  0.41694308  0.38042584  0.31016979  1
  Ni  Ni32  1  0.58591127  0.61801060  0.68570256  1
  Ni  Ni33  1  0.39630137  0.44553111  0.70462637  1
  Ni  Ni34  1  0.52314946  0.64571780  0.31019077  1
  Ni  Ni35  1  0.33355053  0.47367032  0.32887284  1
  Ni  Ni36  1  0.74542345  0.61879835  0.53238951  1
  Ni  Ni37  1  0.36497028  0.27248868  0.57023886  1
  Ni  Ni38  1  0.72366704  0.62872113  0.40165069  1
  Ni  Ni39  1  0.34304656  0.28243120  0.43952646  1
  Ni  Ni40  1  0.65767408  0.71972099  0.55600100  1
  Ni  Ni41  1  0.27484974  0.37180885  0.59426848  1
  Ni  Ni42  1  0.63536020  0.72968212  0.42295406  1
  Ni  Ni43  1  0.25277341  0.38184190  0.46082450  1
  Ni  Ni44  1  0.39135380  0.73068726  0.60071419  1
  Ni  Ni45  1  0.29243192  0.64077319  0.61053790  1
  Ni  Ni46  1  0.27045281  0.65056938  0.47872703  1
  Ni  Ni47  1  0.36939735  0.74062662  0.46890182  1
  Ni  Ni48  1  0.75707764  0.52107543  0.64675287  1
  Ni  Ni49  1  0.47290800  0.26255287  0.67512788  1
  Ni  Ni50  1  0.69522934  0.54827396  0.27735935  1
  Ni  Ni51  1  0.41192020  0.29041426  0.30553517  1
  Ni  Ni52  1  0.59126143  0.43186135  0.78836383  1
  Ni  Ni53  1  0.49045140  0.47648453  0.18545532  1
  Ni  Ni54  1  0.51267335  0.52064631  0.80956419  1
  Ni  Ni55  1  0.41142843  0.56587915  0.20394305  1
  Ni  Ni56  1  0.71378657  0.26639257  0.50537201  1
  Ni  Ni57  1  0.69403261  0.27511658  0.38714189  1
  Ni  Ni58  1  0.30826456  0.72292063  0.60742593  1
  Ni  Ni59  1  0.28841945  0.73180671  0.48832648  1
  Ni  Ni60  1  0.38900871  0.27075430  0.68624657  1
  Ni  Ni61  1  0.75761732  0.60587790  0.64948541  1
  Ni  Ni62  1  0.69698518  0.63284199  0.28671860  1
  Ni  Ni63  1  0.32914455  0.29795629  0.32314553  1
  Ni  Ni64  1  0.30310889  0.36771744  0.70941488  1
  Ni  Ni65  1  0.67172694  0.70301972  0.67252417  1
  Ni  Ni66  1  0.61067697  0.73010088  0.30691264  1
  Ni  Ni67  1  0.24227291  0.39493685  0.34312711  1
  Ni  Ni68  1  0.41432851  0.71614002  0.71661689  1
  Ni  Ni69  1  0.31743772  0.62814304  0.72657684  1
  Ni  Ni70  1  0.35329876  0.74347106  0.35093502  1
  Ni  Ni71  1  0.25644437  0.65534632  0.36031351  1
  Ni  Ni72  1  0.48403923  0.80718583  0.58937974  1
  Ni  Ni73  1  0.20753831  0.55564703  0.61700877  1
  Ni  Ni74  1  0.46265547  0.81662931  0.46056806  1
  Ni  Ni75  1  0.18605696  0.56510833  0.48770000  1
  H  H76  1  0.51414851  0.30309390  0.18384357  1
  Pt  Pt77  1  0.50158251  0.49847232  0.49702720  1
  Pt  Pt78  1  0.55865358  0.53719913  0.55562532  1
  Pt  Pt79  1  0.53740492  0.54661665  0.42916829  1
  Pt  Pt80  1  0.46449245  0.45171925  0.56508169  1
  Pt  Pt81  1  0.44302732  0.46133495  0.43885805  1
  Pt  Pt82  1  0.59092006  0.49368162  0.48149261  1
  Pt  Pt83  1  0.49649009  0.40809145  0.49111588  1
  Pt  Pt84  1  0.50678959  0.58890161  0.50280325  1
  Pt  Pt85  1  0.41209940  0.50297069  0.51229659  1
  Pt  Pt86  1  0.58303600  0.40648729  0.47648369  1
  Pt  Pt87  1  0.52266422  0.48921961  0.62362505  1
  Pt  Pt88  1  0.48013122  0.50814058  0.37045856  1
  Pt  Pt89  1  0.41803730  0.59264790  0.51797985  1
  Pt  Pt90  1  0.59566204  0.58400490  0.48752417  1
  Pt  Pt91  1  0.40729971  0.41301230  0.50644921  1
  Pt  Pt92  1  0.61192570  0.48520909  0.60715566  1
  Pt  Pt93  1  0.56966551  0.50348446  0.35626696  1
  Pt  Pt94  1  0.51700821  0.39882354  0.61667897  1
  Pt  Pt95  1  0.47493933  0.41777266  0.36622794  1
  Pt  Pt96  1  0.52818056  0.57988831  0.62958227  1
  Pt  Pt97  1  0.48578091  0.59875108  0.37588543  1
  Pt  Pt98  1  0.43299117  0.49332111  0.63911267  1
  Pt  Pt99  1  0.39051791  0.51232429  0.38538639  1
  Pt  Pt100  1  0.47626724  0.63108756  0.57695288  1
  Pt  Pt101  1  0.45490741  0.64056876  0.44941065  1
  Pt  Pt102  1  0.38109033  0.54458067  0.58638828  1
  Pt  Pt103  1  0.35980751  0.55415207  0.45889895  1
  Pt  Pt104  1  0.56177646  0.41549366  0.35083486  1
  Pt  Pt105  1  0.60423522  0.39725531  0.60205680  1
  Pt  Pt106  1  0.67775753  0.49285666  0.46690970  1
  Pt  Pt107  1  0.48841503  0.32046675  0.48590283  1
  Pt  Pt108  1  0.43854993  0.58390756  0.64501005  1
  Pt  Pt109  1  0.39615117  0.60282369  0.39110276  1
  Pt  Pt110  1  0.61705047  0.57589264  0.61274562  1
  Pt  Pt111  1  0.42729505  0.40336178  0.63170002  1
  Pt  Pt112  1  0.57512657  0.59433497  0.36230456  1
  Pt  Pt113  1  0.38551240  0.42214615  0.38115435  1
  Pt  Pt114  1  0.51206275  0.67970724  0.50866981  1
  Pt  Pt115  1  0.32225739  0.50732204  0.52755609  1
  Pt  Pt116  1  0.63624116  0.35398280  0.52871123  1
  Pt  Pt117  1  0.61515978  0.36308352  0.40284843  1
  Pt  Pt118  1  0.67261305  0.40164644  0.46101900  1
  Pt  Pt119  1  0.57854206  0.31584015  0.47062706  1
  Pt  Pt120  1  0.58087079  0.52935757  0.68121593  1
  Pt  Pt121  1  0.48415540  0.44124558  0.69088413  1
  Pt  Pt122  1  0.51758207  0.55713567  0.30333179  1
  Pt  Pt123  1  0.42094405  0.46952987  0.31292764  1
  Pt  Pt124  1  0.65246035  0.62412729  0.54550106  1
  Pt  Pt125  1  0.63146883  0.63332780  0.42059073  1
  Pt  Pt126  1  0.36905071  0.36647650  0.57382815  1
  Pt  Pt127  1  0.34826937  0.37584540  0.44874052  1
  Pt  Pt128  1  0.68560051  0.58085669  0.47202775  1
  Pt  Pt129  1  0.40121894  0.32211704  0.50050512  1
  Pt  Pt130  1  0.60110265  0.67635047  0.49347740  1
  Pt  Pt131  1  0.31608062  0.41727035  0.52188862  1
  Pt  Pt132  1  0.42041020  0.68571559  0.52449759  1
  Pt  Pt133  1  0.32625481  0.60008354  0.53376404  1
  Pt  Pt134  1  0.38344798  0.63854561  0.59250864  1
  Pt  Pt135  1  0.36239376  0.64808986  0.46589455  1
  Pt  Pt136  1  0.69907071  0.48349231  0.59111171  1
  Pt  Pt137  1  0.65722933  0.50189541  0.34263316  1
  Pt  Pt138  1  0.50924081  0.31077495  0.61012825  1
  Pt  Pt139  1  0.46814019  0.32948383  0.36148685  1
  Pt  Pt140  1  0.53322787  0.67124274  0.63537532  1
  Pt  Pt141  1  0.34268483  0.49794622  0.65444428  1
  Pt  Pt142  1  0.49093325  0.69006628  0.38201392  1
  Pt  Pt143  1  0.30038920  0.51688024  0.40079946  1
  Pt  Pt144  1  0.69259371  0.39366757  0.58577265  1
  Pt  Pt145  1  0.65096404  0.41216306  0.33725386  1
  Pt  Pt146  1  0.59818796  0.30777914  0.59522638  1
  Pt  Pt147  1  0.55663296  0.32587068  0.34611118  1
  Pt  Pt148  1  0.72974312  0.44085748  0.51763133  1
  Pt  Pt149  1  0.54071569  0.26868748  0.53656204  1
  Pt  Pt150  1  0.70935239  0.45002243  0.39524264  1
  Pt  Pt151  1  0.52051510  0.27793586  0.41419958  1
  Pt  Pt152  1  0.49622613  0.62145622  0.70181846  1
  Pt  Pt153  1  0.40251492  0.53622684  0.71123330  1
  Pt  Pt154  1  0.43325072  0.64950683  0.32460194  1
  Pt  Pt155  1  0.33946785  0.56444878  0.33380695  1
  Pt  Pt156  1  0.70413050  0.57163543  0.59544794  1
  Pt  Pt157  1  0.66303157  0.58979663  0.34963557  1
  Pt  Pt158  1  0.42198571  0.31500676  0.62359310  1
  Pt  Pt159  1  0.38118004  0.33350925  0.37761694  1
  Pt  Pt160  1  0.62095261  0.66554249  0.61833595  1
  Pt  Pt161  1  0.57921400  0.68403669  0.36864442  1
  Pt  Pt162  1  0.33869992  0.40888826  0.64654080  1
  Pt  Pt163  1  0.29711734  0.42754192  0.39652096  1
  Pt  Pt164  1  0.56919103  0.71828126  0.56565210  1
  Pt  Pt165  1  0.54861639  0.72743420  0.44235230  1
  Pt  Pt166  1  0.28528416  0.46020430  0.59397719  1
  Pt  Pt167  1  0.26480098  0.46933008  0.47044359  1
  Pt  Pt168  1  0.44184170  0.67517882  0.65001266  1
  Pt  Pt169  1  0.39986468  0.69393052  0.39841144  1
  Pt  Pt170  1  0.34839666  0.59021783  0.65948544  1
  Pt  Pt171  1  0.30642113  0.60897992  0.40763102  1
  Pt  Pt172  1  0.47840781  0.72430721  0.58077185  1
  Pt  Pt173  1  0.28910217  0.55206505  0.59970730  1
  Pt  Pt174  1  0.45799127  0.73324537  0.45849973  1
  Pt  Pt175  1  0.26867148  0.56113622  0.47721607  1
  Pt  Pt176  1  0.46007351  0.51732117  0.25138637  1
  Pt  Pt177  1  0.54221863  0.48083835  0.74242555  1
  Pt  Pt178  1  0.66599970  0.31346444  0.45578434  1
  Pt  Pt179  1  0.68682332  0.66918409  0.47847474  1
  Pt  Pt180  1  0.31437103  0.33024902  0.51559285  1
  Pt  Pt181  1  0.33376174  0.68746502  0.53899534  1
  Pt  Pt182  1  0.66148169  0.34032783  0.65674860  1
  Pt  Pt183  1  0.59594168  0.36906890  0.27375037  1
  Pt  Pt184  1  0.77178378  0.48865855  0.45082070  1
  Pt  Pt185  1  0.48253397  0.22491602  0.47967046  1
  Pt  Pt186  1  0.63743474  0.47591073  0.73179296  1
  Pt  Pt187  1  0.55329649  0.51254470  0.23025445  1
  Pt  Pt188  1  0.53747187  0.38483462  0.74173189  1
  Pt  Pt189  1  0.45329136  0.42262150  0.23989539  1
  Pt  Pt190  1  0.54965306  0.57659197  0.75823605  1
  Pt  Pt191  1  0.46457809  0.61444381  0.24811287  1
  Pt  Pt192  1  0.44853300  0.48445791  0.76819201  1
  Pt  Pt193  1  0.36327113  0.52262547  0.25815084  1
  Pt  Pt194  1  0.67804550  0.61862806  0.67453459  1
  Pt  Pt195  1  0.61395797  0.64692575  0.29084541  1
  Pt  Pt196  1  0.38635597  0.35328376  0.70358105  1
  Pt  Pt197  1  0.32274111  0.38206460  0.31984030  1
  Pt  Pt198  1  0.73812252  0.34590511  0.51758315  1
  Pt  Pt199  1  0.71491927  0.35603597  0.37881925  1
  Pt  Pt200  1  0.63419654  0.25123012  0.52815116  1
  Pt  Pt201  1  0.61109570  0.26169825  0.38963935  1
  Pt  Pt202  1  0.40094179  0.63383653  0.72433420  1
  Pt  Pt203  1  0.33632116  0.66275091  0.33623002  1
  Pt  Pt204  1  0.51480834  0.78130088  0.51583903  1
  Pt  Pt205  1  0.22189273  0.51554065  0.54486851  1
  Pt  Pt206  1  0.62565681  0.38716338  0.72517973  1
  Pt  Pt207  1  0.54178609  0.42322177  0.22721759  1
  Pt  Pt208  1  0.37387846  0.61382672  0.26419650  1
  Pt  Pt209  1  0.45865783  0.57591731  0.77232029  1
  Pt  Pt210  1  0.63986621  0.56825912  0.73982515  1
  Pt  Pt211  1  0.36244982  0.43036604  0.25401950  1
  Pt  Pt212  1  0.55554702  0.60533347  0.23503488  1
  Pt  Pt213  1  0.44674433  0.39246497  0.75906595  1
  Pt  Pt214  1  0.77485858  0.57949943  0.45703311  1
  Pt  Pt215  1  0.39302622  0.23211600  0.49479480  1
  Pt  Pt216  1  0.64948084  0.31737820  0.32846045  1
  Pt  Pt217  1  0.69169986  0.29886083  0.58042018  1
  Pt  Pt218  1  0.76720775  0.39485052  0.44467966  1
  Pt  Pt219  1  0.57520924  0.21984790  0.46403535  1
  Pt  Pt220  1  0.28798368  0.33630843  0.38881189  1
  Pt  Pt221  1  0.66956362  0.68331031  0.35110793  1
  Pt  Pt222  1  0.33034281  0.31732184  0.64342361  1
  Pt  Pt223  1  0.71209793  0.66452903  0.60537664  1
  Pt  Pt224  1  0.60549426  0.77240410  0.49991655  1
  Pt  Pt225  1  0.22147645  0.42323993  0.53815620  1
  Pt  Pt226  1  0.35066261  0.68271381  0.66631721  1
  Pt  Pt227  1  0.30854605  0.70151666  0.41374609  1
  Pt  Pt228  1  0.42529225  0.78036018  0.53060348  1
  Pt  Pt229  1  0.23290105  0.60524196  0.54971112  1
  Pt  Pt230  1  0.75695119  0.43332122  0.64439053  1
  Pt  Pt231  1  0.55956283  0.25366361  0.66407880  1
  Pt  Pt232  1  0.69354684  0.46092025  0.26705613  1
  Pt  Pt233  1  0.49713973  0.28147682  0.28627551  1
  Pt  Pt234  1  0.79189332  0.48081873  0.57900233  1
  Pt  Pt235  1  0.74894304  0.49949936  0.32364951  1
  Pt  Pt236  1  0.50233102  0.21742231  0.60787368  1
  Pt  Pt237  1  0.46031044  0.23673967  0.35232988  1
  Pt  Pt238  1  0.58929350  0.71411867  0.69448075  1
  Pt  Pt239  1  0.52603648  0.74226944  0.31466825  1
  Pt  Pt240  1  0.30175731  0.45248852  0.72334150  1
  Pt  Pt241  1  0.23841172  0.48075309  0.34287584  1
  Pt  Pt242  1  0.49982908  0.72081467  0.71100620  1
  Pt  Pt243  1  0.30482434  0.54333844  0.73060287  1
  Pt  Pt244  1  0.43615819  0.74918418  0.32921601  1
  Pt  Pt245  1  0.24109094  0.57177417  0.34824595  1
  Pt  Pt246  1  0.53669193  0.76660940  0.64392524  1
  Pt  Pt247  1  0.49380310  0.78572059  0.38657152  1
  Pt  Pt248  1  0.24892374  0.50488465  0.67283524  1
  Pt  Pt249  1  0.20595237  0.52392331  0.41479269  1
  Pt  Pt250  1  0.44697331  0.33613447  0.24178965  1
  Pt  Pt251  1  0.72138413  0.47620811  0.71054955  1
  Pt  Pt252  1  0.52743739  0.29962469  0.72989548  1
  Pt  Pt253  1  0.63965276  0.51202444  0.22299105  1
  Pt  Pt254  1  0.79080986  0.56858288  0.58293330  1
  Pt  Pt255  1  0.74903311  0.58702796  0.33262222  1
  Pt  Pt256  1  0.41591124  0.22756187  0.62051331  1
  Pt  Pt257  1  0.37458111  0.24642659  0.36984068  1
  Pt  Pt258  1  0.55223655  0.66485436  0.75733203  1
  Pt  Pt259  1  0.46939415  0.70175873  0.26090098  1
  Pt  Pt260  1  0.36076650  0.49045236  0.77646616  1
  Pt  Pt261  1  0.27775871  0.52753788  0.27953775  1
  Pt  Pt262  1  0.78676056  0.39165888  0.57263037  1
  Pt  Pt263  1  0.74434281  0.41027260  0.31829432  1
  Pt  Pt264  1  0.54860102  0.23183459  0.33785909  1
  Pt  Pt265  1  0.59038878  0.21294762  0.59220110  1
  Pt  Pt266  1  0.58269110  0.77545329  0.37374219  1
  Pt  Pt267  1  0.62474370  0.75668942  0.62564857  1
  Pt  Pt268  1  0.24891121  0.41500949  0.66330541  1
  Pt  Pt269  1  0.20700283  0.43371981  0.41068230  1
  Pt  Pt270  1  0.44781817  0.76551884  0.65459067  1
  Pt  Pt271  1  0.21743400  0.61217297  0.42374537  1
  Pt  Pt272  1  0.40636149  0.78405860  0.40525459  1
  Pt  Pt273  1  0.25893883  0.59371229  0.67356103  1
  Pt  Pt274  1  0.71318609  0.38959583  0.70793594  1
  Pt  Pt275  1  0.63027729  0.42565424  0.21569594  1
  Pt  Pt276  1  0.61365259  0.29901090  0.71778908  1
  Pt  Pt277  1  0.53236768  0.33337472  0.22276237  1
  Pt  Pt278  1  0.82208520  0.52858280  0.51127621  1
  Pt  Pt279  1  0.44486774  0.18568068  0.54903166  1
  Pt  Pt280  1  0.80076882  0.53789971  0.38368446  1
  Pt  Pt281  1  0.42403393  0.19504692  0.42098289  1
  Pt  Pt282  1  0.59826070  0.51656494  0.80085943  1
  Pt  Pt283  1  0.50829965  0.43454617  0.80979386  1
  Pt  Pt284  1  0.49520480  0.56217694  0.18386590  1
  Pt  Pt285  1  0.40500938  0.48077045  0.19251664  1
  Pt  Pt286  1  0.72697228  0.56075332  0.71630087  1
  Pt  Pt287  1  0.64531170  0.59663935  0.22777022  1
  Pt  Pt288  1  0.36313007  0.34001948  0.25577384  1
  Pt  Pt289  1  0.44378694  0.30319250  0.74452833  1
  Pt  Pt290  1  0.63762872  0.65757462  0.74139374  1
  Pt  Pt291  1  0.55501020  0.69399361  0.24699172  1
  Pt  Pt292  1  0.35869455  0.40365551  0.76929405  1
  Pt  Pt293  1  0.27615891  0.44050136  0.27437166  1
  Pt  Pt294  1  0.74778431  0.34392145  0.63526879  1
  Pt  Pt295  1  0.64798719  0.25308958  0.64511723  1
  Pt  Pt296  1  0.68530865  0.37115772  0.26582046  1
  Pt  Pt297  1  0.58717388  0.28026322  0.27525083  1
  Pt  Pt298  1  0.75235909  0.30650891  0.44060256  1
  Pt  Pt299  1  0.66371873  0.22580526  0.44966264  1
  Pt  Pt300  1  0.34013990  0.77299610  0.54433621  1
  Pt  Pt301  1  0.24908819  0.69018404  0.55332770  1
  Pt  Pt302  1  0.81948327  0.43626717  0.50515523  1
  Pt  Pt303  1  0.79835844  0.44557046  0.37715617  1
  Pt  Pt304  1  0.53596559  0.17803604  0.53353117  1
  Pt  Pt305  1  0.51503145  0.18770936  0.40530171  1
  Pt  Pt306  1  0.74106409  0.70653245  0.53626856  1
  Pt  Pt307  1  0.72027142  0.71585722  0.41232413  1
  Pt  Pt308  1  0.27886679  0.28599469  0.58226729  1
  Pt  Pt309  1  0.25816751  0.29536073  0.45820422  1
  Pt  Pt310  1  0.77230981  0.66488189  0.46383039  1
  Pt  Pt311  1  0.30944445  0.24377078  0.50980331  1
  Pt  Pt312  1  0.68855028  0.75680889  0.48482552  1
  Pt  Pt313  1  0.22819235  0.33799852  0.53053443  1
  Pt  Pt314  1  0.38245121  0.70408775  0.27484544  1
  Pt  Pt315  1  0.46553304  0.66693470  0.77266495  1
  Pt  Pt316  1  0.36794424  0.57798015  0.78257971  1
  Pt  Pt317  1  0.28477365  0.61521801  0.28429507  1
  Pt  Pt318  1  0.57314546  0.80887256  0.57543997  1
  Pt  Pt319  1  0.19644647  0.46640962  0.61305423  1
  Pt  Pt320  1  0.55129452  0.81852176  0.44507327  1
  Pt  Pt321  1  0.17487628  0.47597099  0.48217217  1
