# generated using pymatgen
data_Ni76HPt245
_symmetry_space_group_name_H-M   'P 1'
_cell_length_a   30.00000000
_cell_length_b   30.00000000
_cell_length_c   30.00000000
_cell_angle_alpha   90.00000000
_cell_angle_beta   90.00000000
_cell_angle_gamma   90.00000000
_symmetry_Int_Tables_number   1
_chemical_formula_structural   Ni76HPt245
_chemical_formula_sum   'Ni76 H1 Pt245'
_cell_volume   27000.00000000
_cell_formula_units_Z   1
loop_
 _symmetry_equiv_pos_site_id
 _symmetry_equiv_pos_as_xyz
  1  'x, y, z'
loop_
 _atom_site_type_symbol
 _atom_site_label
 _atom_site_symmetry_multiplicity
 _atom_site_fract_x
 _atom_site_fract_y
 _atom_site_fract_z
 _atom_site_occupancy
  Ni  Ni0  1  0.55438459  0.44612650  0.54903206  1
  Ni  Ni1  1  0.53330983  0.45550399  0.42333030  1
  Ni  Ni2  1  0.46976242  0.54157741  0.57117225  1
  Ni  Ni3  1  0.44838845  0.55112998  0.44396081  1
  Ni  Ni4  1  0.64129361  0.44469770  0.53478565  1
  Ni  Ni5  1  0.54634605  0.35853762  0.54438716  1
  Ni  Ni6  1  0.62082026  0.45432141  0.40774265  1
  Ni  Ni7  1  0.52521263  0.36789670  0.41773685  1
  Ni  Ni8  1  0.64885987  0.53220759  0.53910275  1
  Ni  Ni9  1  0.45962252  0.36020541  0.55805875  1
  Ni  Ni10  1  0.62828273  0.54132570  0.41384202  1
  Ni  Ni11  1  0.43866586  0.36958581  0.43326196  1
  Ni  Ni12  1  0.56400268  0.62877489  0.56114016  1
  Ni  Ni13  1  0.37398729  0.45585786  0.58014002  1
  Ni  Ni14  1  0.54296030  0.63817477  0.43538219  1
  Ni  Ni15  1  0.35286410  0.46524310  0.45430972  1
  Ni  Ni16  1  0.57481128  0.43753141  0.67478817  1
  Ni  Ni17  1  0.51181770  0.46558218  0.29807288  1
  Ni  Ni18  1  0.49065318  0.53257152  0.69820995  1
  Ni  Ni19  1  0.42675494  0.56103033  0.31694218  1
  Ni  Ni20  1  0.66058502  0.43578632  0.65820270  1
  Ni  Ni21  1  0.56706946  0.35074108  0.66749663  1
  Ni  Ni22  1  0.59847473  0.46359229  0.28593061  1
  Ni  Ni23  1  0.50470239  0.37847635  0.29482317  1
  Ni  Ni24  1  0.73463464  0.53093996  0.52321254  1
  Ni  Ni25  1  0.45158443  0.27346279  0.55134955  1
  Ni  Ni26  1  0.71454640  0.54004103  0.40116093  1
  Ni  Ni27  1  0.43125417  0.28256754  0.42958135  1
  Ni  Ni28  1  0.66810647  0.52545226  0.66345818  1
  Ni  Ni29  1  0.47816923  0.35267835  0.68238633  1
  Ni  Ni30  1  0.60614390  0.55284378  0.29146322  1
  Ni  Ni31  1  0.41585006  0.38041757  0.30994453  1
  Ni  Ni32  1  0.58590301  0.61822048  0.68573933  1
  Ni  Ni33  1  0.39611722  0.44545668  0.70465872  1
  Ni  Ni34  1  0.52318007  0.64617192  0.31028921  1
  Ni  Ni35  1  0.33306985  0.47343880  0.32893596  1
  Ni  Ni36  1  0.74517633  0.61860943  0.53291392  1
  Ni  Ni37  1  0.36510503  0.27252149  0.57041603  1
  Ni  Ni38  1  0.72353127  0.62839609  0.40168566  1
  Ni  Ni39  1  0.34310900  0.28240157  0.43966093  1
  Ni  Ni40  1  0.65786946  0.71966430  0.55592026  1
  Ni  Ni41  1  0.27518464  0.37146303  0.59399153  1
  Ni  Ni42  1  0.63562510  0.72956524  0.42308606  1
  Ni  Ni43  1  0.25294616  0.38153785  0.46111084  1
  Ni  Ni44  1  0.39169616  0.73032246  0.60048246  1
  Ni  Ni45  1  0.29289028  0.64047676  0.61032270  1
  Ni  Ni46  1  0.27097062  0.65020239  0.47887046  1
  Ni  Ni47  1  0.36972517  0.74014764  0.46897142  1
  Ni  Ni48  1  0.75687302  0.52088018  0.64745242  1
  Ni  Ni49  1  0.47303401  0.26273637  0.67567311  1
  Ni  Ni50  1  0.69542307  0.54822172  0.27643130  1
  Ni  Ni51  1  0.41111488  0.29034194  0.30493898  1
  Ni  Ni52  1  0.59100671  0.43214091  0.78852524  1
  Ni  Ni53  1  0.49026318  0.47705058  0.18578352  1
  Ni  Ni54  1  0.51236899  0.52087922  0.80970111  1
  Ni  Ni55  1  0.41113879  0.56602102  0.20417355  1
  Ni  Ni56  1  0.71333265  0.26656153  0.50541559  1
  Ni  Ni57  1  0.69328242  0.27541912  0.38715291  1
  Ni  Ni58  1  0.30851920  0.72278579  0.60734658  1
  Ni  Ni59  1  0.28858478  0.73166998  0.48832827  1
  Ni  Ni60  1  0.38927619  0.27077714  0.68666312  1
  Ni  Ni61  1  0.75745296  0.60560903  0.65016481  1
  Ni  Ni62  1  0.69674041  0.63259970  0.28634879  1
  Ni  Ni63  1  0.32856243  0.29791867  0.32281440  1
  Ni  Ni64  1  0.30318362  0.36738866  0.70939500  1
  Ni  Ni65  1  0.67187733  0.70285764  0.67258390  1
  Ni  Ni66  1  0.61082394  0.73018667  0.30702839  1
  Ni  Ni67  1  0.24193599  0.39473656  0.34334409  1
  Ni  Ni68  1  0.41456558  0.71624359  0.71646671  1
  Ni  Ni69  1  0.31740832  0.62795253  0.72614630  1
  Ni  Ni70  1  0.35347338  0.74350871  0.35112131  1
  Ni  Ni71  1  0.25640926  0.65522170  0.36064229  1
  Ni  Ni72  1  0.48458631  0.80716224  0.58924620  1
  Ni  Ni73  1  0.20741044  0.55505157  0.61685410  1
  Ni  Ni74  1  0.46304484  0.81667381  0.46057025  1
  Ni  Ni75  1  0.18607102  0.56468210  0.48798929  1
  H  H76  1  0.79117150  0.50381003  0.28115453  1
  Pt  Pt77  1  0.50171729  0.49836962  0.49679245  1
  Pt  Pt78  1  0.55873889  0.53712905  0.55551456  1
  Pt  Pt79  1  0.53750909  0.54662590  0.42906729  1
  Pt  Pt80  1  0.46454921  0.45159189  0.56500767  1
  Pt  Pt81  1  0.44320845  0.46096344  0.43844286  1
  Pt  Pt82  1  0.59129351  0.49380896  0.48126687  1
  Pt  Pt83  1  0.49646976  0.40797092  0.49093741  1
  Pt  Pt84  1  0.50690632  0.58882490  0.50275879  1
  Pt  Pt85  1  0.41227256  0.50276280  0.51218860  1
  Pt  Pt86  1  0.58298233  0.40668547  0.47633550  1
  Pt  Pt87  1  0.52261302  0.48927166  0.62359805  1
  Pt  Pt88  1  0.47983692  0.50820976  0.37026117  1
  Pt  Pt89  1  0.41812919  0.59247583  0.51786298  1
  Pt  Pt90  1  0.59575589  0.58400539  0.48741684  1
  Pt  Pt91  1  0.40732411  0.41288684  0.50630170  1
  Pt  Pt92  1  0.61187724  0.48528041  0.60726781  1
  Pt  Pt93  1  0.56972475  0.50395187  0.35620334  1
  Pt  Pt94  1  0.51679561  0.39886005  0.61674406  1
  Pt  Pt95  1  0.47464901  0.41759284  0.36542196  1
  Pt  Pt96  1  0.52816277  0.57998467  0.62951335  1
  Pt  Pt97  1  0.48571748  0.59885401  0.37588847  1
  Pt  Pt98  1  0.43298565  0.49330144  0.63906749  1
  Pt  Pt99  1  0.39040080  0.51221284  0.38535113  1
  Pt  Pt100  1  0.47631410  0.63107559  0.57688355  1
  Pt  Pt101  1  0.45497168  0.64055130  0.44943019  1
  Pt  Pt102  1  0.38118517  0.54451300  0.58635352  1
  Pt  Pt103  1  0.35988101  0.55392262  0.45887633  1
  Pt  Pt104  1  0.56184641  0.41609280  0.35083995  1
  Pt  Pt105  1  0.60396619  0.39738123  0.60219376  1
  Pt  Pt106  1  0.67814673  0.49285136  0.46648934  1
  Pt  Pt107  1  0.48815509  0.32045137  0.48583077  1
  Pt  Pt108  1  0.43857485  0.58392505  0.64500408  1
  Pt  Pt109  1  0.39610139  0.60282394  0.39109033  1
  Pt  Pt110  1  0.61691886  0.57595576  0.61277279  1
  Pt  Pt111  1  0.42719721  0.40335689  0.63175715  1
  Pt  Pt112  1  0.57503643  0.59460146  0.36233881  1
  Pt  Pt113  1  0.38512277  0.42203524  0.38109772  1
  Pt  Pt114  1  0.51218365  0.67962500  0.50865303  1
  Pt  Pt115  1  0.32251393  0.50704348  0.52755001  1
  Pt  Pt116  1  0.63584505  0.35397217  0.52893240  1
  Pt  Pt117  1  0.61477333  0.36338096  0.40276547  1
  Pt  Pt118  1  0.67242421  0.40173867  0.46112071  1
  Pt  Pt119  1  0.57809711  0.31597832  0.47055420  1
  Pt  Pt120  1  0.58070017  0.52952530  0.68129706  1
  Pt  Pt121  1  0.48400898  0.44135542  0.69098425  1
  Pt  Pt122  1  0.51762230  0.55750727  0.30330069  1
  Pt  Pt123  1  0.42046480  0.46954732  0.31279040  1
  Pt  Pt124  1  0.65240205  0.62413635  0.54561272  1
  Pt  Pt125  1  0.63157224  0.63337469  0.42058148  1
  Pt  Pt126  1  0.36908094  0.36627004  0.57388891  1
  Pt  Pt127  1  0.34805989  0.37561575  0.44878496  1
  Pt  Pt128  1  0.68570389  0.58084003  0.47226212  1
  Pt  Pt129  1  0.40105510  0.32188345  0.50050999  1
  Pt  Pt130  1  0.60122022  0.67641283  0.49346778  1
  Pt  Pt131  1  0.31610740  0.41708264  0.52189631  1
  Pt  Pt132  1  0.42053780  0.68563281  0.52443219  1
  Pt  Pt133  1  0.32637623  0.59992185  0.53376639  1
  Pt  Pt134  1  0.38363490  0.63847118  0.59243645  1
  Pt  Pt135  1  0.36250868  0.64787128  0.46587508  1
  Pt  Pt136  1  0.69902945  0.48348501  0.59148338  1
  Pt  Pt137  1  0.65884711  0.50197346  0.34173163  1
  Pt  Pt138  1  0.50913036  0.31076689  0.61046803  1
  Pt  Pt139  1  0.46741083  0.32931890  0.36123949  1
  Pt  Pt140  1  0.53333206  0.67142195  0.63535710  1
  Pt  Pt141  1  0.34262761  0.49777453  0.65434663  1
  Pt  Pt142  1  0.49097382  0.69020289  0.38210475  1
  Pt  Pt143  1  0.30032210  0.51667942  0.40091777  1
  Pt  Pt144  1  0.69228327  0.39377064  0.58605168  1
  Pt  Pt145  1  0.65064244  0.41233196  0.33668589  1
  Pt  Pt146  1  0.59797920  0.30787728  0.59543053  1
  Pt  Pt147  1  0.55615010  0.32638533  0.34608876  1
  Pt  Pt148  1  0.72954115  0.44094225  0.51790136  1
  Pt  Pt149  1  0.54051187  0.26893246  0.53674421  1
  Pt  Pt150  1  0.70993231  0.45070511  0.39421130  1
  Pt  Pt151  1  0.51995229  0.27805326  0.41397220  1
  Pt  Pt152  1  0.49629210  0.62159344  0.70178944  1
  Pt  Pt153  1  0.40240057  0.53613243  0.71114207  1
  Pt  Pt154  1  0.43316050  0.64966815  0.32474419  1
  Pt  Pt155  1  0.33926523  0.56433073  0.33392986  1
  Pt  Pt156  1  0.70396834  0.57153117  0.59583468  1
  Pt  Pt157  1  0.66283270  0.58983196  0.34932025  1
  Pt  Pt158  1  0.42203254  0.31498478  0.62391528  1
  Pt  Pt159  1  0.38073810  0.33342688  0.37743093  1
  Pt  Pt160  1  0.62105613  0.66558154  0.61836574  1
  Pt  Pt161  1  0.57926996  0.68418198  0.36871182  1
  Pt  Pt162  1  0.33870281  0.40871339  0.64655908  1
  Pt  Pt163  1  0.29685899  0.42733152  0.39666961  1
  Pt  Pt164  1  0.56941694  0.71837490  0.56551954  1
  Pt  Pt165  1  0.54884373  0.72757629  0.44252253  1
  Pt  Pt166  1  0.28528394  0.45987676  0.59388505  1
  Pt  Pt167  1  0.26471782  0.46909728  0.47065072  1
  Pt  Pt168  1  0.44199720  0.67520857  0.64996946  1
  Pt  Pt169  1  0.39992734  0.69391645  0.39852951  1
  Pt  Pt170  1  0.34844899  0.59009644  0.65932293  1
  Pt  Pt171  1  0.30639274  0.60879354  0.40773749  1
  Pt  Pt172  1  0.47866419  0.72428027  0.58066802  1
  Pt  Pt173  1  0.28910275  0.55179584  0.59956893  1
  Pt  Pt174  1  0.45824255  0.73325590  0.45854117  1
  Pt  Pt175  1  0.26875063  0.56088042  0.47732743  1
  Pt  Pt176  1  0.45984123  0.51761144  0.25161202  1
  Pt  Pt177  1  0.54198888  0.48109499  0.74258331  1
  Pt  Pt178  1  0.66538669  0.31363162  0.45586651  1
  Pt  Pt179  1  0.68692679  0.66917551  0.47861280  1
  Pt  Pt180  1  0.31417727  0.33002261  0.51576643  1
  Pt  Pt181  1  0.33391334  0.68735263  0.53893208  1
  Pt  Pt182  1  0.66093931  0.34080161  0.65687154  1
  Pt  Pt183  1  0.59626175  0.36948512  0.27347322  1
  Pt  Pt184  1  0.77269373  0.48839497  0.45106387  1
  Pt  Pt185  1  0.48254316  0.22459337  0.47965060  1
  Pt  Pt186  1  0.63720019  0.47618616  0.73208169  1
  Pt  Pt187  1  0.55325624  0.51350883  0.23001263  1
  Pt  Pt188  1  0.53722974  0.38518903  0.74204429  1
  Pt  Pt189  1  0.45313836  0.42268363  0.23991265  1
  Pt  Pt190  1  0.54945801  0.57670027  0.75824292  1
  Pt  Pt191  1  0.46429143  0.61455263  0.24846122  1
  Pt  Pt192  1  0.44831381  0.48455544  0.76823409  1
  Pt  Pt193  1  0.36286450  0.52262633  0.25825636  1
  Pt  Pt194  1  0.67794868  0.61849858  0.67477832  1
  Pt  Pt195  1  0.61381786  0.64710807  0.29084025  1
  Pt  Pt196  1  0.38641454  0.35323064  0.70377026  1
  Pt  Pt197  1  0.32208975  0.38187957  0.31957826  1
  Pt  Pt198  1  0.73778049  0.34604376  0.51780584  1
  Pt  Pt199  1  0.71362648  0.35678711  0.37956381  1
  Pt  Pt200  1  0.63387015  0.25122433  0.52822673  1
  Pt  Pt201  1  0.61041890  0.26165831  0.38943576  1
  Pt  Pt202  1  0.40099575  0.63392827  0.72429003  1
  Pt  Pt203  1  0.33622052  0.66281097  0.33636098  1
  Pt  Pt204  1  0.51522989  0.78142884  0.51572462  1
  Pt  Pt205  1  0.22215178  0.51492760  0.54491702  1
  Pt  Pt206  1  0.62539644  0.38741693  0.72547455  1
  Pt  Pt207  1  0.54200226  0.42447962  0.22698023  1
  Pt  Pt208  1  0.37353722  0.61397452  0.26437602  1
  Pt  Pt209  1  0.45845564  0.57604142  0.77229005  1
  Pt  Pt210  1  0.63953563  0.56842209  0.74015296  1
  Pt  Pt211  1  0.36186273  0.43035556  0.25378070  1
  Pt  Pt212  1  0.55523146  0.60596268  0.23483993  1
  Pt  Pt213  1  0.44654854  0.39268987  0.75934937  1
  Pt  Pt214  1  0.77499525  0.57920509  0.45724935  1
  Pt  Pt215  1  0.39315642  0.23180513  0.49499456  1
  Pt  Pt216  1  0.64901693  0.31742951  0.32844020  1
  Pt  Pt217  1  0.69140361  0.29885625  0.58065228  1
  Pt  Pt218  1  0.76690119  0.39522611  0.44494347  1
  Pt  Pt219  1  0.57470647  0.22007461  0.46408285  1
  Pt  Pt220  1  0.28780695  0.33603465  0.38876850  1
  Pt  Pt221  1  0.66963517  0.68323524  0.35104953  1
  Pt  Pt222  1  0.33050552  0.31701532  0.64359138  1
  Pt  Pt223  1  0.71226823  0.66427553  0.60559824  1
  Pt  Pt224  1  0.60612619  0.77257279  0.49990833  1
  Pt  Pt225  1  0.22136036  0.42254460  0.53811754  1
  Pt  Pt226  1  0.35085712  0.68269431  0.66626859  1
  Pt  Pt227  1  0.30866822  0.70148554  0.41382772  1
  Pt  Pt228  1  0.42569625  0.78041511  0.53057287  1
  Pt  Pt229  1  0.23279752  0.60493803  0.54978293  1
  Pt  Pt230  1  0.75675430  0.43314984  0.64510519  1
  Pt  Pt231  1  0.55970484  0.25392617  0.66457688  1
  Pt  Pt232  1  0.69374313  0.46093586  0.26599289  1
  Pt  Pt233  1  0.49643806  0.28218125  0.28588268  1
  Pt  Pt234  1  0.79173066  0.48066328  0.57987751  1
  Pt  Pt235  1  0.75458665  0.49936664  0.31744135  1
  Pt  Pt236  1  0.50249267  0.21746982  0.60857596  1
  Pt  Pt237  1  0.45960370  0.23662710  0.35150714  1
  Pt  Pt238  1  0.58963294  0.71427596  0.69455980  1
  Pt  Pt239  1  0.52613480  0.74256778  0.31469423  1
  Pt  Pt240  1  0.30158844  0.45226811  0.72329795  1
  Pt  Pt241  1  0.23805857  0.48061108  0.34305468  1
  Pt  Pt242  1  0.50014267  0.72102419  0.71101065  1
  Pt  Pt243  1  0.30460623  0.54312174  0.73040612  1
  Pt  Pt244  1  0.43634650  0.74939331  0.32931892  1
  Pt  Pt245  1  0.24078976  0.57159843  0.34849157  1
  Pt  Pt246  1  0.53718380  0.76675131  0.64395545  1
  Pt  Pt247  1  0.49417417  0.78588966  0.38660960  1
  Pt  Pt248  1  0.24876293  0.50437531  0.67262828  1
  Pt  Pt249  1  0.20587253  0.52360685  0.41505493  1
  Pt  Pt250  1  0.44595926  0.33637799  0.24139480  1
  Pt  Pt251  1  0.72116816  0.47597994  0.71116167  1
  Pt  Pt252  1  0.52762129  0.29993235  0.73030024  1
  Pt  Pt253  1  0.63950327  0.51221287  0.22251549  1
  Pt  Pt254  1  0.79066655  0.56846003  0.58369771  1
  Pt  Pt255  1  0.74855343  0.58675565  0.33240805  1
  Pt  Pt256  1  0.41607068  0.22761687  0.62088235  1
  Pt  Pt257  1  0.37413067  0.24641453  0.36955858  1
  Pt  Pt258  1  0.55237035  0.66499502  0.75728669  1
  Pt  Pt259  1  0.46943122  0.70190618  0.26104197  1
  Pt  Pt260  1  0.36053045  0.49042038  0.77638985  1
  Pt  Pt261  1  0.27736740  0.52748202  0.27976076  1
  Pt  Pt262  1  0.78631326  0.39151935  0.57320299  1
  Pt  Pt263  1  0.74359384  0.41000053  0.31801277  1
  Pt  Pt264  1  0.54789398  0.23231841  0.33729800  1
  Pt  Pt265  1  0.59051484  0.21326450  0.59278159  1
  Pt  Pt266  1  0.58302168  0.77546470  0.37384140  1
  Pt  Pt267  1  0.62507077  0.75667605  0.62556314  1
  Pt  Pt268  1  0.24897037  0.41446251  0.66310647  1
  Pt  Pt269  1  0.20682331  0.43334709  0.41098387  1
  Pt  Pt270  1  0.44825904  0.76554868  0.65436925  1
  Pt  Pt271  1  0.21734445  0.61186855  0.42408197  1
  Pt  Pt272  1  0.40665155  0.78408962  0.40543006  1
  Pt  Pt273  1  0.25888498  0.59336050  0.67321727  1
  Pt  Pt274  1  0.71285817  0.38941834  0.70848449  1
  Pt  Pt275  1  0.63009178  0.42596554  0.21528088  1
  Pt  Pt276  1  0.61380022  0.29930987  0.71823042  1
  Pt  Pt277  1  0.53130658  0.33602540  0.22466806  1
  Pt  Pt278  1  0.82177599  0.52856751  0.51217065  1
  Pt  Pt279  1  0.44524939  0.18590651  0.54946571  1
  Pt  Pt280  1  0.79962199  0.53755126  0.38360298  1
  Pt  Pt281  1  0.42384178  0.19544760  0.42076861  1
  Pt  Pt282  1  0.59799969  0.51674383  0.80115913  1
  Pt  Pt283  1  0.50802686  0.43482060  0.81005512  1
  Pt  Pt284  1  0.49479465  0.56270695  0.18388540  1
  Pt  Pt285  1  0.40482065  0.48090266  0.19278492  1
  Pt  Pt286  1  0.72659338  0.56052292  0.71695744  1
  Pt  Pt287  1  0.64475539  0.59683764  0.22750650  1
  Pt  Pt288  1  0.36228537  0.33991243  0.25535527  1
  Pt  Pt289  1  0.44401068  0.30339133  0.74500105  1
  Pt  Pt290  1  0.63776375  0.65769967  0.74162245  1
  Pt  Pt291  1  0.55513032  0.69453397  0.24697613  1
  Pt  Pt292  1  0.35843911  0.40356714  0.76934306  1
  Pt  Pt293  1  0.27559002  0.44045720  0.27446333  1
  Pt  Pt294  1  0.74730871  0.34379854  0.63573096  1
  Pt  Pt295  1  0.64808889  0.25339167  0.64561868  1
  Pt  Pt296  1  0.68501820  0.37102054  0.26544326  1
  Pt  Pt297  1  0.58610654  0.28094034  0.27500989  1
  Pt  Pt298  1  0.75181301  0.30685253  0.44073801  1
  Pt  Pt299  1  0.66304673  0.22591643  0.44966857  1
  Pt  Pt300  1  0.34056343  0.77291580  0.54426182  1
  Pt  Pt301  1  0.24922360  0.68987604  0.55336466  1
  Pt  Pt302  1  0.81931319  0.43616318  0.50602117  1
  Pt  Pt303  1  0.79754038  0.44539824  0.37690915  1
  Pt  Pt304  1  0.53615376  0.17844280  0.53414886  1
  Pt  Pt305  1  0.51461487  0.18814396  0.40473674  1
  Pt  Pt306  1  0.74131248  0.70627439  0.53651787  1
  Pt  Pt307  1  0.72050117  0.71551418  0.41228244  1
  Pt  Pt308  1  0.27897308  0.28557697  0.58251998  1
  Pt  Pt309  1  0.25821007  0.29499890  0.45820795  1
  Pt  Pt310  1  0.77227547  0.66440561  0.46405816  1
  Pt  Pt311  1  0.30968956  0.24359581  0.50994585  1
  Pt  Pt312  1  0.68908314  0.75675512  0.48481276  1
  Pt  Pt313  1  0.22795539  0.33728344  0.53065010  1
  Pt  Pt314  1  0.38247263  0.70423958  0.27512335  1
  Pt  Pt315  1  0.46565972  0.66707471  0.77254710  1
  Pt  Pt316  1  0.36767319  0.57800650  0.78226367  1
  Pt  Pt317  1  0.28453815  0.61517897  0.28470662  1
  Pt  Pt318  1  0.57349560  0.80891121  0.57534697  1
  Pt  Pt319  1  0.19634625  0.46569126  0.61289577  1
  Pt  Pt320  1  0.55176900  0.81861229  0.44504004  1
  Pt  Pt321  1  0.17471625  0.47555889  0.48238549  1
