# generated using pymatgen
data_Ni76Pt245
_symmetry_space_group_name_H-M   'P 1'
_cell_length_a   30.00000000
_cell_length_b   30.00000000
_cell_length_c   30.00000000
_cell_angle_alpha   90.00000000
_cell_angle_beta   90.00000000
_cell_angle_gamma   90.00000000
_symmetry_Int_Tables_number   1
_chemical_formula_structural   Ni76Pt245
_chemical_formula_sum   'Ni76 Pt245'
_cell_volume   27000.00000000
_cell_formula_units_Z   1
loop_
 _symmetry_equiv_pos_site_id
 _symmetry_equiv_pos_as_xyz
  1  'x, y, z'
loop_
 _atom_site_type_symbol
 _atom_site_label
 _atom_site_symmetry_multiplicity
 _atom_site_fract_x
 _atom_site_fract_y
 _atom_site_fract_z
 _atom_site_occupancy
  Ni  Ni0  1  0.55437279  0.44616449  0.54913467  1
  Ni  Ni1  1  0.53328812  0.45554834  0.42336049  1
  Ni  Ni2  1  0.46977889  0.54157126  0.57123680  1
  Ni  Ni3  1  0.44841482  0.55105654  0.44378228  1
  Ni  Ni4  1  0.64133535  0.44488442  0.53493131  1
  Ni  Ni5  1  0.54635437  0.35855854  0.54437671  1
  Ni  Ni6  1  0.62016343  0.45433637  0.40823272  1
  Ni  Ni7  1  0.52518580  0.36794353  0.41770710  1
  Ni  Ni8  1  0.64893027  0.53230499  0.53921079  1
  Ni  Ni9  1  0.45967688  0.36021277  0.55804916  1
  Ni  Ni10  1  0.62800620  0.54159209  0.41438718  1
  Ni  Ni11  1  0.43869698  0.36952720  0.43319883  1
  Ni  Ni12  1  0.56409965  0.62879148  0.56114364  1
  Ni  Ni13  1  0.37398812  0.45588632  0.58009080  1
  Ni  Ni14  1  0.54306861  0.63821444  0.43533874  1
  Ni  Ni15  1  0.35289146  0.46524813  0.45420273  1
  Ni  Ni16  1  0.57473205  0.43765763  0.67475771  1
  Ni  Ni17  1  0.51160605  0.46566004  0.29796913  1
  Ni  Ni18  1  0.49059513  0.53266672  0.69810174  1
  Ni  Ni19  1  0.42680384  0.56100729  0.31713507  1
  Ni  Ni20  1  0.66062014  0.43588515  0.65824637  1
  Ni  Ni21  1  0.56710909  0.35078123  0.66752525  1
  Ni  Ni22  1  0.59818396  0.46356866  0.28545458  1
  Ni  Ni23  1  0.50467966  0.37849273  0.29471490  1
  Ni  Ni24  1  0.73476468  0.53094356  0.52317428  1
  Ni  Ni25  1  0.45166905  0.27353118  0.55131752  1
  Ni  Ni26  1  0.71437504  0.53998725  0.40137644  1
  Ni  Ni27  1  0.43131435  0.28257732  0.42955927  1
  Ni  Ni28  1  0.66818746  0.52544566  0.66352067  1
  Ni  Ni29  1  0.47827874  0.35261213  0.68243177  1
  Ni  Ni30  1  0.60589215  0.55321889  0.29095801  1
  Ni  Ni31  1  0.41590219  0.38036531  0.30982807  1
  Ni  Ni32  1  0.58600556  0.61826844  0.68577680  1
  Ni  Ni33  1  0.39605048  0.44542901  0.70465941  1
  Ni  Ni34  1  0.52320633  0.64625237  0.31016784  1
  Ni  Ni35  1  0.33315048  0.47344633  0.32899907  1
  Ni  Ni36  1  0.74564013  0.61837209  0.53255810  1
  Ni  Ni37  1  0.36517164  0.27248658  0.57040878  1
  Ni  Ni38  1  0.72379458  0.62816764  0.40167408  1
  Ni  Ni39  1  0.34319961  0.28224981  0.43958957  1
  Ni  Ni40  1  0.65798022  0.71956837  0.55576588  1
  Ni  Ni41  1  0.27533523  0.37145350  0.59383515  1
  Ni  Ni42  1  0.63578639  0.72941316  0.42298655  1
  Ni  Ni43  1  0.25302003  0.38144468  0.46109579  1
  Ni  Ni44  1  0.39177320  0.73035484  0.60047660  1
  Ni  Ni45  1  0.29293914  0.64046862  0.61028243  1
  Ni  Ni46  1  0.27092024  0.65023266  0.47882414  1
  Ni  Ni47  1  0.36977738  0.74017140  0.46896939  1
  Ni  Ni48  1  0.75698012  0.52076667  0.64755893  1
  Ni  Ni49  1  0.47322395  0.26275757  0.67576405  1
  Ni  Ni50  1  0.69483630  0.54842140  0.27644605  1
  Ni  Ni51  1  0.41118657  0.29041040  0.30474632  1
  Ni  Ni52  1  0.59088817  0.43225047  0.78861268  1
  Ni  Ni53  1  0.49007577  0.47718874  0.18563328  1
  Ni  Ni54  1  0.51236204  0.52095648  0.80971685  1
  Ni  Ni55  1  0.41102439  0.56610596  0.20408833  1
  Ni  Ni56  1  0.71309547  0.26686365  0.50542967  1
  Ni  Ni57  1  0.69328756  0.27563829  0.38704432  1
  Ni  Ni58  1  0.30861265  0.72277751  0.60728584  1
  Ni  Ni59  1  0.28864685  0.73167151  0.48837994  1
  Ni  Ni60  1  0.38952235  0.27077593  0.68670736  1
  Ni  Ni61  1  0.75764746  0.60545954  0.65021338  1
  Ni  Ni62  1  0.69665114  0.63262757  0.28602543  1
  Ni  Ni63  1  0.32866899  0.29792352  0.32266802  1
  Ni  Ni64  1  0.30332749  0.36722999  0.70926697  1
  Ni  Ni65  1  0.67204303  0.70278739  0.67257640  1
  Ni  Ni66  1  0.61102465  0.73008597  0.30686950  1
  Ni  Ni67  1  0.24208081  0.39454595  0.34338366  1
  Ni  Ni68  1  0.41463811  0.71626449  0.71638806  1
  Ni  Ni69  1  0.31737679  0.62788019  0.72606786  1
  Ni  Ni70  1  0.35353567  0.74345796  0.35115322  1
  Ni  Ni71  1  0.25640485  0.65518645  0.36077066  1
  Ni  Ni72  1  0.48469032  0.80715402  0.58907849  1
  Ni  Ni73  1  0.20739193  0.55496218  0.61676169  1
  Ni  Ni74  1  0.46318079  0.81667881  0.46060262  1
  Ni  Ni75  1  0.18598227  0.56460592  0.48807029  1
  Pt  Pt76  1  0.50164940  0.49840485  0.49684383  1
  Pt  Pt77  1  0.55870466  0.53726216  0.55560356  1
  Pt  Pt78  1  0.53752020  0.54672820  0.42904244  1
  Pt  Pt79  1  0.46448738  0.45162091  0.56499608  1
  Pt  Pt80  1  0.44325771  0.46102407  0.43838666  1
  Pt  Pt81  1  0.59106322  0.49386734  0.48152613  1
  Pt  Pt82  1  0.49646135  0.40798545  0.49090712  1
  Pt  Pt83  1  0.50690883  0.58882279  0.50271426  1
  Pt  Pt84  1  0.41226131  0.50274866  0.51212295  1
  Pt  Pt85  1  0.58292742  0.40674414  0.47642262  1
  Pt  Pt86  1  0.52257308  0.48933312  0.62357943  1
  Pt  Pt87  1  0.48019804  0.50816790  0.37021974  1
  Pt  Pt88  1  0.41822576  0.59242384  0.51780381  1
  Pt  Pt89  1  0.59581242  0.58405779  0.48750604  1
  Pt  Pt90  1  0.40737941  0.41285663  0.50621358  1
  Pt  Pt91  1  0.61190372  0.48536128  0.60729324  1
  Pt  Pt92  1  0.56981476  0.50405778  0.35596801  1
  Pt  Pt93  1  0.51685575  0.39887290  0.61675269  1
  Pt  Pt94  1  0.47474131  0.41756402  0.36541434  1
  Pt  Pt95  1  0.52822831  0.58005156  0.62955144  1
  Pt  Pt96  1  0.48580068  0.59889440  0.37588047  1
  Pt  Pt97  1  0.43293678  0.49331247  0.63905978  1
  Pt  Pt98  1  0.39044669  0.51218806  0.38531059  1
  Pt  Pt99  1  0.47635232  0.63108418  0.57685124  1
  Pt  Pt100  1  0.45503484  0.64057664  0.44937581  1
  Pt  Pt101  1  0.38118536  0.54452881  0.58628682  1
  Pt  Pt102  1  0.35987813  0.55396730  0.45880001  1
  Pt  Pt103  1  0.56180995  0.41624561  0.35065612  1
  Pt  Pt104  1  0.60397372  0.39753285  0.60221469  1
  Pt  Pt105  1  0.67793335  0.49298102  0.46694455  1
  Pt  Pt106  1  0.48818522  0.32043366  0.48578149  1
  Pt  Pt107  1  0.43863598  0.58389943  0.64494503  1
  Pt  Pt108  1  0.39618629  0.60276882  0.39109736  1
  Pt  Pt109  1  0.61705113  0.57603440  0.61274060  1
  Pt  Pt110  1  0.42724236  0.40331830  0.63172112  1
  Pt  Pt111  1  0.57510663  0.59468526  0.36224059  1
  Pt  Pt112  1  0.38521514  0.42198278  0.38112035  1
  Pt  Pt113  1  0.51231133  0.67955841  0.50859505  1
  Pt  Pt114  1  0.32253780  0.50704419  0.52744009  1
  Pt  Pt115  1  0.63588579  0.35431616  0.52884530  1
  Pt  Pt116  1  0.61474441  0.36370013  0.40267453  1
  Pt  Pt117  1  0.67243568  0.40200895  0.46109386  1
  Pt  Pt118  1  0.57804184  0.31614988  0.47048247  1
  Pt  Pt119  1  0.58076318  0.52953465  0.68129550  1
  Pt  Pt120  1  0.48397231  0.44135264  0.69094149  1
  Pt  Pt121  1  0.51754929  0.55763719  0.30317323  1
  Pt  Pt122  1  0.42064697  0.46947237  0.31280756  1
  Pt  Pt123  1  0.65265092  0.62408280  0.54551409  1
  Pt  Pt124  1  0.63167172  0.63330386  0.42054027  1
  Pt  Pt125  1  0.36922283  0.36627608  0.57380618  1
  Pt  Pt126  1  0.34818965  0.37555478  0.44873992  1
  Pt  Pt127  1  0.68588765  0.58080918  0.47210321  1
  Pt  Pt128  1  0.40107494  0.32186348  0.50047614  1
  Pt  Pt129  1  0.60134919  0.67632581  0.49342785  1
  Pt  Pt130  1  0.31625733  0.41709056  0.52177442  1
  Pt  Pt131  1  0.42069184  0.68559989  0.52438815  1
  Pt  Pt132  1  0.32644832  0.59987569  0.53370168  1
  Pt  Pt133  1  0.38373275  0.63841637  0.59246053  1
  Pt  Pt134  1  0.36261736  0.64787215  0.46580953  1
  Pt  Pt135  1  0.69916091  0.48353707  0.59150847  1
  Pt  Pt136  1  0.65737133  0.50208090  0.34217835  1
  Pt  Pt137  1  0.50921871  0.31078239  0.61046466  1
  Pt  Pt138  1  0.46744974  0.32928793  0.36113322  1
  Pt  Pt139  1  0.53342582  0.67146012  0.63527876  1
  Pt  Pt140  1  0.34256935  0.49775502  0.65425111  1
  Pt  Pt141  1  0.49117186  0.69026357  0.38207434  1
  Pt  Pt142  1  0.30019194  0.51660865  0.40096736  1
  Pt  Pt143  1  0.69236104  0.39381751  0.58609217  1
  Pt  Pt144  1  0.65056923  0.41240176  0.33655398  1
  Pt  Pt145  1  0.59799397  0.30801715  0.59547851  1
  Pt  Pt146  1  0.55624312  0.32655755  0.34594304  1
  Pt  Pt147  1  0.72966162  0.44097429  0.51790014  1
  Pt  Pt148  1  0.54054731  0.26904224  0.53674894  1
  Pt  Pt149  1  0.70909357  0.45016615  0.39501864  1
  Pt  Pt150  1  0.52000673  0.27815451  0.41382596  1
  Pt  Pt151  1  0.49632560  0.62169403  0.70171109  1
  Pt  Pt152  1  0.40230560  0.53610926  0.71105942  1
  Pt  Pt153  1  0.43332154  0.64974027  0.32479803  1
  Pt  Pt154  1  0.33921869  0.56428278  0.33407365  1
  Pt  Pt155  1  0.70416885  0.57152757  0.59579990  1
  Pt  Pt156  1  0.66290843  0.58986710  0.34929319  1
  Pt  Pt157  1  0.42213251  0.31498561  0.62389208  1
  Pt  Pt158  1  0.38079056  0.33334930  0.37736215  1
  Pt  Pt159  1  0.62118985  0.66557880  0.61832444  1
  Pt  Pt160  1  0.57946753  0.68419611  0.36864037  1
  Pt  Pt161  1  0.33877794  0.40863487  0.64648728  1
  Pt  Pt162  1  0.29690374  0.42724526  0.39665934  1
  Pt  Pt163  1  0.56950142  0.71835222  0.56549151  1
  Pt  Pt164  1  0.54895681  0.72752439  0.44242892  1
  Pt  Pt165  1  0.28533201  0.45984204  0.59376857  1
  Pt  Pt166  1  0.26468812  0.46906597  0.47061853  1
  Pt  Pt167  1  0.44202204  0.67520795  0.64992588  1
  Pt  Pt168  1  0.40002571  0.69392129  0.39849177  1
  Pt  Pt169  1  0.34847818  0.59005964  0.65927847  1
  Pt  Pt170  1  0.30638450  0.60877313  0.40778543  1
  Pt  Pt171  1  0.47871557  0.72429837  0.58068122  1
  Pt  Pt172  1  0.28908458  0.55176803  0.59953393  1
  Pt  Pt173  1  0.45830912  0.73330666  0.45847234  1
  Pt  Pt174  1  0.26867223  0.56090055  0.47729696  1
  Pt  Pt175  1  0.45972105  0.51769865  0.25158915  1
  Pt  Pt176  1  0.54189048  0.48115968  0.74253438  1
  Pt  Pt177  1  0.66532408  0.31391204  0.45571916  1
  Pt  Pt178  1  0.68706645  0.66907349  0.47845711  1
  Pt  Pt179  1  0.31428445  0.33002155  0.51571431  1
  Pt  Pt180  1  0.33399971  0.68731831  0.53890445  1
  Pt  Pt181  1  0.66065889  0.34115341  0.65675238  1
  Pt  Pt182  1  0.59639182  0.36963708  0.27324171  1
  Pt  Pt183  1  0.77260445  0.48829101  0.45075356  1
  Pt  Pt184  1  0.48261458  0.22470438  0.47958570  1
  Pt  Pt185  1  0.63707404  0.47624297  0.73213366  1
  Pt  Pt186  1  0.55308183  0.51366142  0.22981272  1
  Pt  Pt187  1  0.53719306  0.38534467  0.74200466  1
  Pt  Pt188  1  0.45306233  0.42267861  0.23960615  1
  Pt  Pt189  1  0.54944566  0.57666657  0.75810756  1
  Pt  Pt190  1  0.46418476  0.61462724  0.24840206  1
  Pt  Pt191  1  0.44837037  0.48465812  0.76810103  1
  Pt  Pt192  1  0.36305206  0.52263435  0.25842892  1
  Pt  Pt193  1  0.67805305  0.61842713  0.67476432  1
  Pt  Pt194  1  0.61382337  0.64705136  0.29068365  1
  Pt  Pt195  1  0.38653610  0.35318176  0.70379804  1
  Pt  Pt196  1  0.32225477  0.38186501  0.31959268  1
  Pt  Pt197  1  0.73775142  0.34617669  0.51778417  1
  Pt  Pt198  1  0.71433750  0.35658245  0.37895688  1
  Pt  Pt199  1  0.63364327  0.25167312  0.52813490  1
  Pt  Pt200  1  0.61042904  0.26186949  0.38934832  1
  Pt  Pt201  1  0.40103846  0.63385931  0.72416141  1
  Pt  Pt202  1  0.33635645  0.66264891  0.33649598  1
  Pt  Pt203  1  0.51540384  0.78102831  0.51560406  1
  Pt  Pt204  1  0.22235347  0.51478410  0.54480766  1
  Pt  Pt205  1  0.62531658  0.38753293  0.72551640  1
  Pt  Pt206  1  0.54186683  0.42465236  0.22701355  1
  Pt  Pt207  1  0.37359445  0.61393193  0.26459010  1
  Pt  Pt208  1  0.45845497  0.57608148  0.77214183  1
  Pt  Pt209  1  0.63962423  0.56841343  0.74017631  1
  Pt  Pt210  1  0.36202691  0.43039622  0.25384132  1
  Pt  Pt211  1  0.55507508  0.60609668  0.23469038  1
  Pt  Pt212  1  0.44657620  0.39273805  0.75935605  1
  Pt  Pt213  1  0.77517009  0.57899049  0.45702766  1
  Pt  Pt214  1  0.39322460  0.23182136  0.49495171  1
  Pt  Pt215  1  0.64911547  0.31772969  0.32834448  1
  Pt  Pt216  1  0.69137880  0.29899946  0.58066039  1
  Pt  Pt217  1  0.76697990  0.39510010  0.44474861  1
  Pt  Pt218  1  0.57475498  0.22025660  0.46390012  1
  Pt  Pt219  1  0.28794262  0.33592186  0.38876784  1
  Pt  Pt220  1  0.66982262  0.68313546  0.35088745  1
  Pt  Pt221  1  0.33063561  0.31693421  0.64356419  1
  Pt  Pt222  1  0.71241390  0.66415106  0.60553870  1
  Pt  Pt223  1  0.60630666  0.77255924  0.49980598  1
  Pt  Pt224  1  0.22131806  0.42244071  0.53803859  1
  Pt  Pt225  1  0.35083281  0.68271936  0.66625729  1
  Pt  Pt226  1  0.30866609  0.70154231  0.41384388  1
  Pt  Pt227  1  0.42575875  0.78045382  0.53054090  1
  Pt  Pt228  1  0.23279555  0.60490991  0.54976977  1
  Pt  Pt229  1  0.75668942  0.43301311  0.64520812  1
  Pt  Pt230  1  0.55991046  0.25402759  0.66476292  1
  Pt  Pt231  1  0.69320889  0.46119139  0.26611896  1
  Pt  Pt232  1  0.49656590  0.28223007  0.28571941  1
  Pt  Pt233  1  0.79186267  0.48046632  0.57994722  1
  Pt  Pt234  1  0.74877312  0.49961035  0.32252848  1
  Pt  Pt235  1  0.50268465  0.21757044  0.60864702  1
  Pt  Pt236  1  0.45968755  0.23666163  0.35136058  1
  Pt  Pt237  1  0.58977118  0.71419730  0.69453673  1
  Pt  Pt238  1  0.52632212  0.74256494  0.31460025  1
  Pt  Pt239  1  0.30165107  0.45211125  0.72319663  1
  Pt  Pt240  1  0.23810079  0.48042779  0.34308943  1
  Pt  Pt241  1  0.50021250  0.72102377  0.71089655  1
  Pt  Pt242  1  0.30458121  0.54305662  0.73032285  1
  Pt  Pt243  1  0.43644184  0.74943110  0.32933311  1
  Pt  Pt244  1  0.24078459  0.57156090  0.34859940  1
  Pt  Pt245  1  0.53728412  0.76672945  0.64388314  1
  Pt  Pt246  1  0.49425593  0.78586240  0.38655328  1
  Pt  Pt247  1  0.24879778  0.50427000  0.67255802  1
  Pt  Pt248  1  0.20576481  0.52351851  0.41508654  1
  Pt  Pt249  1  0.44598129  0.33636146  0.24123117  1
  Pt  Pt250  1  0.72114137  0.47591130  0.71130523  1
  Pt  Pt251  1  0.52778207  0.30001181  0.73051357  1
  Pt  Pt252  1  0.63930631  0.51235101  0.22198012  1
  Pt  Pt253  1  0.79084011  0.56823399  0.58373519  1
  Pt  Pt254  1  0.74868646  0.58695522  0.33200140  1
  Pt  Pt255  1  0.41629523  0.22768278  0.62095463  1
  Pt  Pt256  1  0.37424041  0.24643763  0.36933951  1
  Pt  Pt257  1  0.55245111  0.66494995  0.75727274  1
  Pt  Pt258  1  0.46949817  0.70193798  0.26098452  1
  Pt  Pt259  1  0.36057185  0.49033414  0.77634830  1
  Pt  Pt260  1  0.27747162  0.52739219  0.27984464  1
  Pt  Pt261  1  0.78636808  0.39141299  0.57335643  1
  Pt  Pt262  1  0.74353872  0.41039446  0.31773489  1
  Pt  Pt263  1  0.54794670  0.23238333  0.33719364  1
  Pt  Pt264  1  0.59063889  0.21341562  0.59279119  1
  Pt  Pt265  1  0.58311697  0.77541435  0.37373488  1
  Pt  Pt266  1  0.62523291  0.75660425  0.62557391  1
  Pt  Pt267  1  0.24911489  0.41439687  0.66302393  1
  Pt  Pt268  1  0.20687054  0.43326000  0.41095313  1
  Pt  Pt269  1  0.44833601  0.76559787  0.65430665  1
  Pt  Pt270  1  0.21726999  0.61184188  0.42415958  1
  Pt  Pt271  1  0.40670485  0.78411205  0.40543667  1
  Pt  Pt272  1  0.25888040  0.59326774  0.67311852  1
  Pt  Pt273  1  0.71279151  0.38933494  0.70863384  1
  Pt  Pt274  1  0.63009915  0.42608004  0.21477108  1
  Pt  Pt275  1  0.61394185  0.29940912  0.71840561  1
  Pt  Pt276  1  0.53136810  0.33615014  0.22457669  1
  Pt  Pt277  1  0.82181789  0.52823426  0.51204533  1
  Pt  Pt278  1  0.44538629  0.18602781  0.54946153  1
  Pt  Pt279  1  0.80022823  0.53773433  0.38318904  1
  Pt  Pt280  1  0.42387383  0.19550470  0.42067666  1
  Pt  Pt281  1  0.59790535  0.51683255  0.80119774  1
  Pt  Pt282  1  0.50796189  0.43492562  0.81007611  1
  Pt  Pt283  1  0.49461492  0.56279733  0.18380923  1
  Pt  Pt284  1  0.40468430  0.48103756  0.19270341  1
  Pt  Pt285  1  0.72666789  0.56045632  0.71695149  1
  Pt  Pt286  1  0.64470391  0.59699007  0.22711770  1
  Pt  Pt287  1  0.36229390  0.33995380  0.25525691  1
  Pt  Pt288  1  0.44415937  0.30347202  0.74502833  1
  Pt  Pt289  1  0.63794194  0.65769368  0.74162866  1
  Pt  Pt290  1  0.55521934  0.69458372  0.24683484  1
  Pt  Pt291  1  0.35846238  0.40344969  0.76935349  1
  Pt  Pt292  1  0.27571520  0.44032985  0.27446920  1
  Pt  Pt293  1  0.74723676  0.34366757  0.63584032  1
  Pt  Pt294  1  0.64815824  0.25356320  0.64566211  1
  Pt  Pt295  1  0.68513723  0.37128113  0.26509937  1
  Pt  Pt296  1  0.58620223  0.28109199  0.27494865  1
  Pt  Pt297  1  0.75166780  0.30692824  0.44073956  1
  Pt  Pt298  1  0.66304707  0.22624545  0.44963396  1
  Pt  Pt299  1  0.34062337  0.77282596  0.54426954  1
  Pt  Pt300  1  0.24935367  0.68985367  0.55335318  1
  Pt  Pt301  1  0.81925018  0.43597756  0.50592545  1
  Pt  Pt302  1  0.79760079  0.44559134  0.37647567  1
  Pt  Pt303  1  0.53627367  0.17865134  0.53404417  1
  Pt  Pt304  1  0.51465237  0.18823209  0.40470851  1
  Pt  Pt305  1  0.74141543  0.70602290  0.53637432  1
  Pt  Pt306  1  0.72069376  0.71534841  0.41214191  1
  Pt  Pt307  1  0.27909454  0.28556430  0.58248381  1
  Pt  Pt308  1  0.25834147  0.29492760  0.45820779  1
  Pt  Pt309  1  0.77249872  0.66434266  0.46385848  1
  Pt  Pt310  1  0.30973042  0.24357123  0.50994882  1
  Pt  Pt311  1  0.68922598  0.75662505  0.48468924  1
  Pt  Pt312  1  0.22806605  0.33724216  0.53060156  1
  Pt  Pt313  1  0.38253878  0.70423108  0.27519744  1
  Pt  Pt314  1  0.46566557  0.66714367  0.77242582  1
  Pt  Pt315  1  0.36765127  0.57793265  0.78219874  1
  Pt  Pt316  1  0.28451902  0.61511095  0.28478449  1
  Pt  Pt317  1  0.57365675  0.80884185  0.57522113  1
  Pt  Pt318  1  0.19644649  0.46552641  0.61278717  1
  Pt  Pt319  1  0.55189979  0.81853677  0.44503633  1
  Pt  Pt320  1  0.17467563  0.47543119  0.48241641  1
