# generated using pymatgen
data_H(Pt56Au27)3
_symmetry_space_group_name_H-M   'P 1'
_cell_length_a   30.00000000
_cell_length_b   30.00000000
_cell_length_c   30.00000000
_cell_angle_alpha   90.00000000
_cell_angle_beta   90.00000000
_cell_angle_gamma   90.00000000
_symmetry_Int_Tables_number   1
_chemical_formula_structural   H(Pt56Au27)3
_chemical_formula_sum   'H1 Pt168 Au81'
_cell_volume   27000.00000000
_cell_formula_units_Z   1
loop_
 _symmetry_equiv_pos_site_id
 _symmetry_equiv_pos_as_xyz
  1  'x, y, z'
loop_
 _atom_site_type_symbol
 _atom_site_label
 _atom_site_symmetry_multiplicity
 _atom_site_fract_x
 _atom_site_fract_y
 _atom_site_fract_z
 _atom_site_occupancy
  H  H0  1  0.43311982  0.43185637  0.82522025  1
  Pt  Pt1  1  0.50121274  0.50120417  0.50067721  1
  Pt  Pt2  1  0.56631711  0.56631747  0.50069061  1
  Pt  Pt3  1  0.50014244  0.56622335  0.56656333  1
  Pt  Pt4  1  0.56624452  0.50019033  0.56652989  1
  Pt  Pt5  1  0.56632094  0.50037434  0.43452237  1
  Pt  Pt6  1  0.50037684  0.56631319  0.43452007  1
  Pt  Pt7  1  0.56610239  0.43492170  0.50035796  1
  Pt  Pt8  1  0.43491269  0.56609138  0.50037628  1
  Pt  Pt9  1  0.50035295  0.43495209  0.56608710  1
  Pt  Pt10  1  0.43494301  0.50033162  0.56609316  1
  Pt  Pt11  1  0.50039499  0.43492850  0.43469079  1
  Pt  Pt12  1  0.43495375  0.50038445  0.43469665  1
  Pt  Pt13  1  0.43519575  0.43517127  0.50040688  1
  Pt  Pt14  1  0.49990612  0.49991078  0.63179656  1
  Pt  Pt15  1  0.50033891  0.37054731  0.50013982  1
  Pt  Pt16  1  0.37055342  0.50032035  0.50013723  1
  Pt  Pt17  1  0.49944344  0.63078740  0.50029135  1
  Pt  Pt18  1  0.63080072  0.49946309  0.50027810  1
  Pt  Pt19  1  0.50021083  0.50019573  0.37021392  1
  Pt  Pt20  1  0.56599414  0.56598758  0.36906097  1
  Pt  Pt21  1  0.43441918  0.56569811  0.36870792  1
  Pt  Pt22  1  0.56571285  0.43441631  0.36871033  1
  Pt  Pt23  1  0.56611791  0.36971578  0.56558550  1
  Pt  Pt24  1  0.36970992  0.56610817  0.56560666  1
  Pt  Pt25  1  0.56610383  0.36976690  0.43452099  1
  Pt  Pt26  1  0.36977411  0.56609458  0.43453739  1
  Pt  Pt27  1  0.43416127  0.43414422  0.36954223  1
  Pt  Pt28  1  0.43393387  0.36897113  0.56474850  1
  Pt  Pt29  1  0.36900440  0.43389994  0.56474277  1
  Pt  Pt30  1  0.43394420  0.36934332  0.43516130  1
  Pt  Pt31  1  0.36934904  0.43393436  0.43515223  1
  Pt  Pt32  1  0.63133140  0.56566756  0.56626024  1
  Pt  Pt33  1  0.56565608  0.63130636  0.56626004  1
  Pt  Pt34  1  0.63100344  0.56582821  0.43420635  1
  Pt  Pt35  1  0.56582763  0.63098836  0.43421155  1
  Pt  Pt36  1  0.56602164  0.56599654  0.63101781  1
  Pt  Pt37  1  0.63204497  0.43436974  0.56606029  1
  Pt  Pt38  1  0.43436798  0.63205653  0.56606271  1
  Pt  Pt39  1  0.63128283  0.43421529  0.43388444  1
  Pt  Pt40  1  0.43421179  0.63128897  0.43390252  1
  Pt  Pt41  1  0.43425674  0.56585267  0.63139187  1
  Pt  Pt42  1  0.56590880  0.43428886  0.63132622  1
  Pt  Pt43  1  0.43395618  0.43394923  0.63014238  1
  Pt  Pt44  1  0.49983971  0.36966366  0.63127778  1
  Pt  Pt45  1  0.36964138  0.49981529  0.63130001  1
  Pt  Pt46  1  0.36676000  0.36674162  0.49977708  1
  Pt  Pt47  1  0.63131668  0.49957646  0.63146255  1
  Pt  Pt48  1  0.49956131  0.63128575  0.63148900  1
  Pt  Pt49  1  0.63195431  0.36972685  0.50005077  1
  Pt  Pt50  1  0.36972261  0.63196739  0.50007018  1
  Pt  Pt51  1  0.49982099  0.36924019  0.36894679  1
  Pt  Pt52  1  0.36925488  0.49980467  0.36894763  1
  Pt  Pt53  1  0.63119660  0.63118096  0.50024204  1
  Pt  Pt54  1  0.49979275  0.63145632  0.36891580  1
  Pt  Pt55  1  0.63146903  0.49980553  0.36891197  1
  Pt  Pt56  1  0.56598973  0.69440211  0.50012963  1
  Pt  Pt57  1  0.69441342  0.56599945  0.50013322  1
  Pt  Pt58  1  0.49871022  0.69676020  0.56612570  1
  Pt  Pt59  1  0.69676535  0.49872232  0.56611654  1
  Pt  Pt60  1  0.49875644  0.69601098  0.43381593  1
  Pt  Pt61  1  0.69599268  0.49877833  0.43381492  1
  Pt  Pt62  1  0.43383440  0.69790977  0.49987672  1
  Pt  Pt63  1  0.69786190  0.43384071  0.49988624  1
  Pt  Pt64  1  0.56587722  0.49971725  0.69694378  1
  Pt  Pt65  1  0.49971016  0.56577056  0.69688906  1
  Pt  Pt66  1  0.56648208  0.50011512  0.30492608  1
  Pt  Pt67  1  0.50011889  0.56648010  0.30492176  1
  Pt  Pt68  1  0.49894769  0.43385835  0.69726189  1
  Pt  Pt69  1  0.43376421  0.49882476  0.69741671  1
  Pt  Pt70  1  0.49989494  0.43369076  0.30518844  1
  Pt  Pt71  1  0.43369018  0.49988694  0.30517122  1
  Pt  Pt72  1  0.56629934  0.30528600  0.49997202  1
  Pt  Pt73  1  0.30526559  0.56628998  0.49998971  1
  Pt  Pt74  1  0.50002188  0.30527953  0.56568043  1
  Pt  Pt75  1  0.30528508  0.49999365  0.56568425  1
  Pt  Pt76  1  0.49999109  0.30576233  0.43375271  1
  Pt  Pt77  1  0.30576605  0.49998700  0.43376227  1
  Pt  Pt78  1  0.43365417  0.30467283  0.49981501  1
  Pt  Pt79  1  0.30468086  0.43364858  0.49981106  1
  Pt  Pt80  1  0.36807693  0.36806895  0.63041058  1
  Pt  Pt81  1  0.63181224  0.36866457  0.63137323  1
  Pt  Pt82  1  0.36863089  0.63179989  0.63138003  1
  Pt  Pt83  1  0.36803674  0.36803415  0.36916910  1
  Pt  Pt84  1  0.63209747  0.63207215  0.63201232  1
  Pt  Pt85  1  0.63165763  0.36849524  0.36809655  1
  Pt  Pt86  1  0.36849780  0.63165142  0.36811707  1
  Pt  Pt87  1  0.63191774  0.63189963  0.36779430  1
  Pt  Pt88  1  0.56632910  0.69713352  0.36680447  1
  Pt  Pt89  1  0.69716458  0.56636648  0.36678288  1
  Pt  Pt90  1  0.43390936  0.69808758  0.36677771  1
  Pt  Pt91  1  0.69807176  0.43391088  0.36678712  1
  Pt  Pt92  1  0.69796836  0.36740915  0.56544217  1
  Pt  Pt93  1  0.36740066  0.69795967  0.56543082  1
  Pt  Pt94  1  0.69741211  0.36757616  0.43401760  1
  Pt  Pt95  1  0.36755334  0.69741354  0.43401294  1
  Pt  Pt96  1  0.56590335  0.36760880  0.69713876  1
  Pt  Pt97  1  0.36755942  0.56593512  0.69709875  1
  Pt  Pt98  1  0.56578528  0.36653748  0.30220629  1
  Pt  Pt99  1  0.36653270  0.56577678  0.30220763  1
  Pt  Pt100  1  0.63353576  0.69778732  0.56600258  1
  Pt  Pt101  1  0.69779578  0.63354984  0.56599988  1
  Pt  Pt102  1  0.56573035  0.30270872  0.36695109  1
  Pt  Pt103  1  0.30271837  0.56572284  0.36696408  1
  Pt  Pt104  1  0.69763583  0.63345285  0.43384400  1
  Pt  Pt105  1  0.63346272  0.69760092  0.43386615  1
  Pt  Pt106  1  0.43386208  0.36825606  0.69696692  1
  Pt  Pt107  1  0.36823788  0.43391473  0.69704483  1
  Pt  Pt108  1  0.69761454  0.56595256  0.63290452  1
  Pt  Pt109  1  0.56596615  0.69757931  0.63290233  1
  Pt  Pt110  1  0.36642712  0.43368922  0.30248611  1
  Pt  Pt111  1  0.43369643  0.36642596  0.30248572  1
  Pt  Pt112  1  0.56583067  0.63249388  0.69725335  1
  Pt  Pt113  1  0.63253001  0.56584281  0.69724858  1
  Pt  Pt114  1  0.43379972  0.30234212  0.36689326  1
  Pt  Pt115  1  0.30234217  0.43379903  0.36689056  1
  Pt  Pt116  1  0.63332242  0.56579816  0.30206709  1
  Pt  Pt117  1  0.56579460  0.63330504  0.30206581  1
  Pt  Pt118  1  0.30156472  0.36603618  0.56466479  1
  Pt  Pt119  1  0.36604579  0.30155410  0.56467929  1
  Pt  Pt120  1  0.43420647  0.69890709  0.63296189  1
  Pt  Pt121  1  0.69891239  0.43421194  0.63296042  1
  Pt  Pt122  1  0.36602206  0.30171783  0.43449234  1
  Pt  Pt123  1  0.30172324  0.36600410  0.43448842  1
  Pt  Pt124  1  0.63309833  0.43408065  0.69772883  1
  Pt  Pt125  1  0.43400050  0.63309074  0.69770089  1
  Pt  Pt126  1  0.63357410  0.43397949  0.30165632  1
  Pt  Pt127  1  0.43396645  0.63355616  0.30166157  1
  Pt  Pt128  1  0.63290581  0.30240907  0.56513237  1
  Pt  Pt129  1  0.30239803  0.63290979  0.56515483  1
  Pt  Pt130  1  0.63286219  0.30249989  0.43405831  1
  Pt  Pt131  1  0.30249306  0.63285832  0.43407324  1
  Pt  Pt132  1  0.56540720  0.30271964  0.63234460  1
  Pt  Pt133  1  0.30265962  0.56539588  0.63236703  1
  Pt  Pt134  1  0.43430929  0.30224388  0.63215233  1
  Pt  Pt135  1  0.30227201  0.43428967  0.63210850  1
  Pt  Pt136  1  0.50011015  0.50000481  0.76050863  1
  Pt  Pt137  1  0.49964577  0.24000464  0.49932810  1
  Pt  Pt138  1  0.23998882  0.49964568  0.49933716  1
  Pt  Pt139  1  0.76021122  0.50218034  0.49966322  1
  Pt  Pt140  1  0.50215847  0.76021697  0.49963614  1
  Pt  Pt141  1  0.49984489  0.49983621  0.24046581  1
  Pt  Pt142  1  0.56418686  0.56418958  0.23997326  1
  Pt  Pt143  1  0.43554953  0.56407589  0.24010986  1
  Pt  Pt144  1  0.56407567  0.43553018  0.24011061  1
  Pt  Pt145  1  0.69515480  0.69516544  0.49991593  1
  Pt  Pt146  1  0.43550768  0.43550545  0.24053714  1
  Pt  Pt147  1  0.56369133  0.23982725  0.56349759  1
  Pt  Pt148  1  0.23981520  0.56367726  0.56351920  1
  Pt  Pt149  1  0.56376531  0.24020676  0.43553160  1
  Pt  Pt150  1  0.24019981  0.56377461  0.43554157  1
  Pt  Pt151  1  0.50004991  0.69542667  0.69489199  1
  Pt  Pt152  1  0.69549209  0.50005278  0.69489445  1
  Pt  Pt153  1  0.69492321  0.49995591  0.30461059  1
  Pt  Pt154  1  0.49994991  0.69491178  0.30461351  1
  Pt  Pt155  1  0.43561866  0.23975309  0.56366880  1
  Pt  Pt156  1  0.23969744  0.43556272  0.56358899  1
  Pt  Pt157  1  0.43566525  0.24013347  0.43523470  1
  Pt  Pt158  1  0.24013495  0.43566558  0.43523242  1
  Pt  Pt159  1  0.69472559  0.30413361  0.49962040  1
  Pt  Pt160  1  0.30411080  0.69473006  0.49964939  1
  Pt  Pt161  1  0.75997083  0.56498497  0.56446352  1
  Pt  Pt162  1  0.56495865  0.75995044  0.56447210  1
  Pt  Pt163  1  0.75964289  0.56501437  0.43499699  1
  Pt  Pt164  1  0.56502560  0.75964081  0.43499244  1
  Pt  Pt165  1  0.49952513  0.30459636  0.69405355  1
  Pt  Pt166  1  0.30446820  0.49951468  0.69397752  1
  Pt  Pt167  1  0.49980624  0.30477178  0.30502819  1
  Pt  Pt168  1  0.30476219  0.49980652  0.30501021  1
  Au  Au169  1  0.76931644  0.43474115  0.56447680  1
  Au  Au170  1  0.43473906  0.76931200  0.56448850  1
  Au  Au171  1  0.76944263  0.43498162  0.43494820  1
  Au  Au172  1  0.43487065  0.76945219  0.43491480  1
  Au  Au173  1  0.56562245  0.56565667  0.76839551  1
  Au  Au174  1  0.29747958  0.29741969  0.49962466  1
  Au  Au175  1  0.43430193  0.56524402  0.76835859  1
  Au  Au176  1  0.56538402  0.43436150  0.76838181  1
  Au  Au177  1  0.43504261  0.43542613  0.77262425  1
  Au  Au178  1  0.50022436  0.36624218  0.76269955  1
  Au  Au179  1  0.36594695  0.50048027  0.76274872  1
  Au  Au180  1  0.49972304  0.23527632  0.63019940  1
  Au  Au181  1  0.23521634  0.49959887  0.63012373  1
  Au  Au182  1  0.36933942  0.23491660  0.49940418  1
  Au  Au183  1  0.23490537  0.36927692  0.49935572  1
  Au  Au184  1  0.49993241  0.63263038  0.76322132  1
  Au  Au185  1  0.63289545  0.50013614  0.76334459  1
  Au  Au186  1  0.63043172  0.23510101  0.49946645  1
  Au  Au187  1  0.23510177  0.63042130  0.49947760  1
  Au  Au188  1  0.23580666  0.49991178  0.36904765  1
  Au  Au189  1  0.49990422  0.23580359  0.36904564  1
  Au  Au190  1  0.76473896  0.50087287  0.63169342  1
  Au  Au191  1  0.50087543  0.76468815  0.63174706  1
  Au  Au192  1  0.76374490  0.36635528  0.49934374  1
  Au  Au193  1  0.36635037  0.76376148  0.49935513  1
  Au  Au194  1  0.49979077  0.36903269  0.23577149  1
  Au  Au195  1  0.36903186  0.49978886  0.23577073  1
  Au  Au196  1  0.63083415  0.76387024  0.49982770  1
  Au  Au197  1  0.76386626  0.63083070  0.49980807  1
  Au  Au198  1  0.50055774  0.76350120  0.36798160  1
  Au  Au199  1  0.76348651  0.50058700  0.36796852  1
  Au  Au200  1  0.49980194  0.63068184  0.23512489  1
  Au  Au201  1  0.63064749  0.49979076  0.23512986  1
  Au  Au202  1  0.70011143  0.70007964  0.36684423  1
  Au  Au203  1  0.69977500  0.36663441  0.69913752  1
  Au  Au204  1  0.36662032  0.69973561  0.69915857  1
  Au  Au205  1  0.69933471  0.36663041  0.30005590  1
  Au  Au206  1  0.36664604  0.69935057  0.30003875  1
  Au  Au207  1  0.69941524  0.29930067  0.36798398  1
  Au  Au208  1  0.29928225  0.69942541  0.36798724  1
  Au  Au209  1  0.70031186  0.70031464  0.63248820  1
  Au  Au210  1  0.70057725  0.63245348  0.69952604  1
  Au  Au211  1  0.63242553  0.70056988  0.69951621  1
  Au  Au212  1  0.63265304  0.70002202  0.29958334  1
  Au  Au213  1  0.70003562  0.63269950  0.29955427  1
  Au  Au214  1  0.30000603  0.36799990  0.69849319  1
  Au  Au215  1  0.36796757  0.29998428  0.69850086  1
  Au  Au216  1  0.36675764  0.30009186  0.30061377  1
  Au  Au217  1  0.30008582  0.36676273  0.30060090  1
  Au  Au218  1  0.29906199  0.29908149  0.36779659  1
  Au  Au219  1  0.69912582  0.29934351  0.63100550  1
  Au  Au220  1  0.29934703  0.69908490  0.63103869  1
  Au  Au221  1  0.63158375  0.29928572  0.69881875  1
  Au  Au222  1  0.29922922  0.63160485  0.69893253  1
  Au  Au223  1  0.63188601  0.29961652  0.29995742  1
  Au  Au224  1  0.29961765  0.63188114  0.29994581  1
  Au  Au225  1  0.29978203  0.29977191  0.63124600  1
  Au  Au226  1  0.36857987  0.36858055  0.76144057  1
  Au  Au227  1  0.36968412  0.23678309  0.62927953  1
  Au  Au228  1  0.23676972  0.36970805  0.62929183  1
  Au  Au229  1  0.63100509  0.36846677  0.76182762  1
  Au  Au230  1  0.36844567  0.63093526  0.76187996  1
  Au  Au231  1  0.62912501  0.23639488  0.62919042  1
  Au  Au232  1  0.23639949  0.62912205  0.62921156  1
  Au  Au233  1  0.36912542  0.23678099  0.37031084  1
  Au  Au234  1  0.23677292  0.36913837  0.37031595  1
  Au  Au235  1  0.63133030  0.63132756  0.76180893  1
  Au  Au236  1  0.76270738  0.36840052  0.63022403  1
  Au  Au237  1  0.36835636  0.76270763  0.63020005  1
  Au  Au238  1  0.62967467  0.23672506  0.36990964  1
  Au  Au239  1  0.23671937  0.62966517  0.36989507  1
  Au  Au240  1  0.36971531  0.36971465  0.23690000  1
  Au  Au241  1  0.63041182  0.76347869  0.62997544  1
  Au  Au242  1  0.76348467  0.63041423  0.62998939  1
  Au  Au243  1  0.76222398  0.36866648  0.36918624  1
  Au  Au244  1  0.36864581  0.76222502  0.36915596  1
  Au  Au245  1  0.62985824  0.36954843  0.23663260  1
  Au  Au246  1  0.36954596  0.62985304  0.23662393  1
  Au  Au247  1  0.76312565  0.63042831  0.36930862  1
  Au  Au248  1  0.63046590  0.76304053  0.36930350  1
  Au  Au249  1  0.63003926  0.63006872  0.23663580  1
