# generated using pymatgen
data_H(Pt56Au27)3
_symmetry_space_group_name_H-M   'P 1'
_cell_length_a   30.00000000
_cell_length_b   30.00000000
_cell_length_c   30.00000000
_cell_angle_alpha   90.00000000
_cell_angle_beta   90.00000000
_cell_angle_gamma   90.00000000
_symmetry_Int_Tables_number   1
_chemical_formula_structural   H(Pt56Au27)3
_chemical_formula_sum   'H1 Pt168 Au81'
_cell_volume   27000.00000000
_cell_formula_units_Z   1
loop_
 _symmetry_equiv_pos_site_id
 _symmetry_equiv_pos_as_xyz
  1  'x, y, z'
loop_
 _atom_site_type_symbol
 _atom_site_label
 _atom_site_symmetry_multiplicity
 _atom_site_fract_x
 _atom_site_fract_y
 _atom_site_fract_z
 _atom_site_occupancy
  H  H0  1  0.18938901  0.65856492  0.36526972  1
  Pt  Pt1  1  0.50081688  0.50086144  0.50043523  1
  Pt  Pt2  1  0.56611209  0.56617462  0.50041086  1
  Pt  Pt3  1  0.50012894  0.56593704  0.56628596  1
  Pt  Pt4  1  0.56606083  0.50002646  0.56618762  1
  Pt  Pt5  1  0.56610399  0.50018228  0.43435756  1
  Pt  Pt6  1  0.50003611  0.56608061  0.43436394  1
  Pt  Pt7  1  0.56597686  0.43456342  0.50030898  1
  Pt  Pt8  1  0.43459920  0.56586045  0.50038073  1
  Pt  Pt9  1  0.50019336  0.43464095  0.56609581  1
  Pt  Pt10  1  0.43466948  0.50013657  0.56610582  1
  Pt  Pt11  1  0.50033937  0.43460804  0.43461468  1
  Pt  Pt12  1  0.43448019  0.50030523  0.43425466  1
  Pt  Pt13  1  0.43491420  0.43506842  0.50021919  1
  Pt  Pt14  1  0.50008713  0.50000827  0.63123449  1
  Pt  Pt15  1  0.50023497  0.37029416  0.50015748  1
  Pt  Pt16  1  0.37016136  0.50033296  0.50001123  1
  Pt  Pt17  1  0.49939795  0.63055224  0.50033938  1
  Pt  Pt18  1  0.63055974  0.49939392  0.50017126  1
  Pt  Pt19  1  0.50019561  0.49990475  0.37011057  1
  Pt  Pt20  1  0.56589933  0.56589569  0.36903960  1
  Pt  Pt21  1  0.43417046  0.56574663  0.36858915  1
  Pt  Pt22  1  0.56572730  0.43402022  0.36859675  1
  Pt  Pt23  1  0.56602344  0.36913143  0.56567006  1
  Pt  Pt24  1  0.36910520  0.56590193  0.56569053  1
  Pt  Pt25  1  0.56618370  0.36932104  0.43456781  1
  Pt  Pt26  1  0.36921225  0.56622491  0.43408629  1
  Pt  Pt27  1  0.43473264  0.43366482  0.36917933  1
  Pt  Pt28  1  0.43391240  0.36891768  0.56509340  1
  Pt  Pt29  1  0.36900488  0.43394167  0.56503573  1
  Pt  Pt30  1  0.43403025  0.36923624  0.43500811  1
  Pt  Pt31  1  0.36918125  0.43418340  0.43477489  1
  Pt  Pt32  1  0.63133335  0.56569099  0.56601270  1
  Pt  Pt33  1  0.56579038  0.63129216  0.56609613  1
  Pt  Pt34  1  0.63092807  0.56573054  0.43412268  1
  Pt  Pt35  1  0.56564536  0.63090842  0.43411402  1
  Pt  Pt36  1  0.56612443  0.56603174  0.63065668  1
  Pt  Pt37  1  0.63154366  0.43411950  0.56614491  1
  Pt  Pt38  1  0.43432917  0.63154252  0.56645976  1
  Pt  Pt39  1  0.63113776  0.43397753  0.43385943  1
  Pt  Pt40  1  0.43397120  0.63102421  0.43386421  1
  Pt  Pt41  1  0.43400225  0.56593482  0.63125808  1
  Pt  Pt42  1  0.56600430  0.43393268  0.63113310  1
  Pt  Pt43  1  0.43387919  0.43386928  0.63052565  1
  Pt  Pt44  1  0.49990434  0.36938722  0.63129972  1
  Pt  Pt45  1  0.36934877  0.49991448  0.63127085  1
  Pt  Pt46  1  0.36699904  0.36720469  0.49983184  1
  Pt  Pt47  1  0.63118819  0.49966640  0.63123747  1
  Pt  Pt48  1  0.49975657  0.63125960  0.63118934  1
  Pt  Pt49  1  0.63177842  0.36936561  0.50020381  1
  Pt  Pt50  1  0.36970268  0.63155866  0.50058573  1
  Pt  Pt51  1  0.50014789  0.36878557  0.36878658  1
  Pt  Pt52  1  0.36915658  0.49964044  0.36878554  1
  Pt  Pt53  1  0.63125165  0.63125539  0.50010007  1
  Pt  Pt54  1  0.49973784  0.63139367  0.36890078  1
  Pt  Pt55  1  0.63139284  0.49975140  0.36887303  1
  Pt  Pt56  1  0.56596506  0.69424491  0.50000145  1
  Pt  Pt57  1  0.69429534  0.56601875  0.50003301  1
  Pt  Pt58  1  0.49884410  0.69659355  0.56609867  1
  Pt  Pt59  1  0.69655661  0.49872516  0.56607108  1
  Pt  Pt60  1  0.49866442  0.69577784  0.43387463  1
  Pt  Pt61  1  0.69585293  0.49867330  0.43394443  1
  Pt  Pt62  1  0.43369467  0.69721063  0.49999407  1
  Pt  Pt63  1  0.69738846  0.43367690  0.50006883  1
  Pt  Pt64  1  0.56591852  0.49993535  0.69658809  1
  Pt  Pt65  1  0.50006062  0.56591309  0.69655886  1
  Pt  Pt66  1  0.56640592  0.50011009  0.30488747  1
  Pt  Pt67  1  0.50023436  0.56631099  0.30494005  1
  Pt  Pt68  1  0.49995077  0.43399390  0.69636314  1
  Pt  Pt69  1  0.43399869  0.49995033  0.69632837  1
  Pt  Pt70  1  0.50004419  0.43355647  0.30498071  1
  Pt  Pt71  1  0.43359806  0.50003543  0.30529838  1
  Pt  Pt72  1  0.56633712  0.30484740  0.50010639  1
  Pt  Pt73  1  0.30497667  0.56637559  0.50001649  1
  Pt  Pt74  1  0.50007564  0.30505010  0.56606329  1
  Pt  Pt75  1  0.30504854  0.50003099  0.56609261  1
  Pt  Pt76  1  0.50013340  0.30542233  0.43389906  1
  Pt  Pt77  1  0.30547961  0.50070212  0.43332162  1
  Pt  Pt78  1  0.43372422  0.30486792  0.49997247  1
  Pt  Pt79  1  0.30486266  0.43389277  0.49990580  1
  Pt  Pt80  1  0.36793730  0.36798893  0.63085798  1
  Pt  Pt81  1  0.63199673  0.36827459  0.63162719  1
  Pt  Pt82  1  0.36833182  0.63198082  0.63161176  1
  Pt  Pt83  1  0.36831864  0.36828557  0.36883345  1
  Pt  Pt84  1  0.63217787  0.63216043  0.63177184  1
  Pt  Pt85  1  0.63155946  0.36842966  0.36793644  1
  Pt  Pt86  1  0.36838596  0.63181513  0.36785867  1
  Pt  Pt87  1  0.63193878  0.63191445  0.36803075  1
  Pt  Pt88  1  0.56638083  0.69720715  0.36681377  1
  Pt  Pt89  1  0.69720766  0.56634487  0.36677882  1
  Pt  Pt90  1  0.43400961  0.69802262  0.36676588  1
  Pt  Pt91  1  0.69779383  0.43408353  0.36675231  1
  Pt  Pt92  1  0.69773858  0.36721040  0.56571224  1
  Pt  Pt93  1  0.36715524  0.69774642  0.56575779  1
  Pt  Pt94  1  0.69735731  0.36737075  0.43414373  1
  Pt  Pt95  1  0.36746872  0.69701510  0.43404374  1
  Pt  Pt96  1  0.56602155  0.36722268  0.69733190  1
  Pt  Pt97  1  0.36720963  0.56608906  0.69732004  1
  Pt  Pt98  1  0.56581623  0.36615524  0.30177808  1
  Pt  Pt99  1  0.36611247  0.56614225  0.30253040  1
  Pt  Pt100  1  0.63364880  0.69787303  0.56596304  1
  Pt  Pt101  1  0.69781312  0.63367420  0.56591062  1
  Pt  Pt102  1  0.56581723  0.30262224  0.36681903  1
  Pt  Pt103  1  0.30082462  0.56759861  0.36689927  1
  Pt  Pt104  1  0.69767742  0.63348325  0.43383154  1
  Pt  Pt105  1  0.63344949  0.69754960  0.43382348  1
  Pt  Pt106  1  0.43370931  0.36745395  0.69702660  1
  Pt  Pt107  1  0.36746885  0.43378640  0.69708433  1
  Pt  Pt108  1  0.69756748  0.56595187  0.63285413  1
  Pt  Pt109  1  0.56609954  0.69766953  0.63295043  1
  Pt  Pt110  1  0.36642517  0.43391028  0.30244967  1
  Pt  Pt111  1  0.43395236  0.36616658  0.30189010  1
  Pt  Pt112  1  0.56592327  0.63243328  0.69706226  1
  Pt  Pt113  1  0.63240082  0.56588726  0.69712818  1
  Pt  Pt114  1  0.43410664  0.30251082  0.36666901  1
  Pt  Pt115  1  0.30231052  0.43400350  0.36669906  1
  Pt  Pt116  1  0.63326688  0.56584292  0.30220892  1
  Pt  Pt117  1  0.56581345  0.63327921  0.30222997  1
  Pt  Pt118  1  0.30179649  0.36631222  0.56514723  1
  Pt  Pt119  1  0.36629817  0.30182525  0.56507849  1
  Pt  Pt120  1  0.43438286  0.69871158  0.63284920  1
  Pt  Pt121  1  0.69854440  0.43437894  0.63284193  1
  Pt  Pt122  1  0.36641221  0.30206024  0.43444672  1
  Pt  Pt123  1  0.30197671  0.36635616  0.43449719  1
  Pt  Pt124  1  0.63276495  0.43416999  0.69771334  1
  Pt  Pt125  1  0.43418123  0.63273441  0.69760812  1
  Pt  Pt126  1  0.63348318  0.43411679  0.30144918  1
  Pt  Pt127  1  0.43419315  0.63349573  0.30170814  1
  Pt  Pt128  1  0.63313929  0.30198522  0.56545101  1
  Pt  Pt129  1  0.30211478  0.63314254  0.56558510  1
  Pt  Pt130  1  0.63295172  0.30200235  0.43428849  1
  Pt  Pt131  1  0.30194948  0.63241689  0.43383942  1
  Pt  Pt132  1  0.56553954  0.30222760  0.63278123  1
  Pt  Pt133  1  0.30224071  0.56554700  0.63282475  1
  Pt  Pt134  1  0.43426231  0.30210735  0.63278611  1
  Pt  Pt135  1  0.30212677  0.43424973  0.63285573  1
  Pt  Pt136  1  0.49995281  0.49994074  0.76005200  1
  Pt  Pt137  1  0.49975429  0.23994033  0.49963923  1
  Pt  Pt138  1  0.24022271  0.49965295  0.49969145  1
  Pt  Pt139  1  0.75988199  0.50211489  0.49973319  1
  Pt  Pt140  1  0.50208873  0.75982753  0.49975247  1
  Pt  Pt141  1  0.49994130  0.49999680  0.24038828  1
  Pt  Pt142  1  0.56424916  0.56425671  0.23981549  1
  Pt  Pt143  1  0.43544677  0.56406005  0.24011230  1
  Pt  Pt144  1  0.56408059  0.43548587  0.23997859  1
  Pt  Pt145  1  0.69530546  0.69533069  0.49981107  1
  Pt  Pt146  1  0.43559961  0.43572571  0.24052731  1
  Pt  Pt147  1  0.56370804  0.23957342  0.56386105  1
  Pt  Pt148  1  0.23963934  0.56365475  0.56395736  1
  Pt  Pt149  1  0.56393217  0.23994666  0.43563416  1
  Pt  Pt150  1  0.23957082  0.56409858  0.43564692  1
  Pt  Pt151  1  0.50005957  0.69530941  0.69485268  1
  Pt  Pt152  1  0.69531544  0.50006560  0.69488346  1
  Pt  Pt153  1  0.69496745  0.50002134  0.30439667  1
  Pt  Pt154  1  0.50006073  0.69500774  0.30439117  1
  Pt  Pt155  1  0.43584142  0.23993700  0.56398809  1
  Pt  Pt156  1  0.23989651  0.43587764  0.56409112  1
  Pt  Pt157  1  0.43584602  0.24012562  0.43547736  1
  Pt  Pt158  1  0.24029208  0.43590535  0.43540928  1
  Pt  Pt159  1  0.69479298  0.30409347  0.49981395  1
  Pt  Pt160  1  0.30430548  0.69412858  0.49931501  1
  Pt  Pt161  1  0.75999163  0.56490724  0.56446663  1
  Pt  Pt162  1  0.56503962  0.75990268  0.56448209  1
  Pt  Pt163  1  0.75962070  0.56501550  0.43512289  1
  Pt  Pt164  1  0.56498564  0.75964664  0.43509916  1
  Pt  Pt165  1  0.49987247  0.30464932  0.69446777  1
  Pt  Pt166  1  0.30471212  0.49988236  0.69452323  1
  Pt  Pt167  1  0.49997698  0.30438156  0.30458663  1
  Pt  Pt168  1  0.30465005  0.50071197  0.30584371  1
  Au  Au169  1  0.76909251  0.43496804  0.56451513  1
  Au  Au170  1  0.43496441  0.76906948  0.56452080  1
  Au  Au171  1  0.76912810  0.43501192  0.43528827  1
  Au  Au172  1  0.43493508  0.76904828  0.43515991  1
  Au  Au173  1  0.56547193  0.56546797  0.76839805  1
  Au  Au174  1  0.29800424  0.29797246  0.49984183  1
  Au  Au175  1  0.43463013  0.56526352  0.76831783  1
  Au  Au176  1  0.56526128  0.43460409  0.76835827  1
  Au  Au177  1  0.43451952  0.43453402  0.76847685  1
  Au  Au178  1  0.49976891  0.36722583  0.76290094  1
  Au  Au179  1  0.36727638  0.49991883  0.76290508  1
  Au  Au180  1  0.49988158  0.23501743  0.63072247  1
  Au  Au181  1  0.23505055  0.49987560  0.63075087  1
  Au  Au182  1  0.36951840  0.23525907  0.49963895  1
  Au  Au183  1  0.23533076  0.36958473  0.49971527  1
  Au  Au184  1  0.50023560  0.63273156  0.76318897  1
  Au  Au185  1  0.63275968  0.50023913  0.76327619  1
  Au  Au186  1  0.63059250  0.23475659  0.49985570  1
  Au  Au187  1  0.23500355  0.63037312  0.50015447  1
  Au  Au188  1  0.23566644  0.50001324  0.36911874  1
  Au  Au189  1  0.49992576  0.23583856  0.36898483  1
  Au  Au190  1  0.76464088  0.50091082  0.63183436  1
  Au  Au191  1  0.50102099  0.76457882  0.63177705  1
  Au  Au192  1  0.76359767  0.36647515  0.49985154  1
  Au  Au193  1  0.36664167  0.76330758  0.49970134  1
  Au  Au194  1  0.49982904  0.36900436  0.23548182  1
  Au  Au195  1  0.36898045  0.49997558  0.23614852  1
  Au  Au196  1  0.63086746  0.76382128  0.49981578  1
  Au  Au197  1  0.76386780  0.63092091  0.49992043  1
  Au  Au198  1  0.50075203  0.76332148  0.36798053  1
  Au  Au199  1  0.76331738  0.50071685  0.36798869  1
  Au  Au200  1  0.49991621  0.63061505  0.23520701  1
  Au  Au201  1  0.63062092  0.50000778  0.23513304  1
  Au  Au202  1  0.70050189  0.70050003  0.36741003  1
  Au  Au203  1  0.70001403  0.36770401  0.69980939  1
  Au  Au204  1  0.36777831  0.70002925  0.69981556  1
  Au  Au205  1  0.69958991  0.36752945  0.29946431  1
  Au  Au206  1  0.36728953  0.69966095  0.29953169  1
  Au  Au207  1  0.69882010  0.29991223  0.36755896  1
  Au  Au208  1  0.29947144  0.69831107  0.36825698  1
  Au  Au209  1  0.70063098  0.70066060  0.63238042  1
  Au  Au210  1  0.70018637  0.63256490  0.69932854  1
  Au  Au211  1  0.63244760  0.70042434  0.69954203  1
  Au  Au212  1  0.63299647  0.69992756  0.29997410  1
  Au  Au213  1  0.69989816  0.63301547  0.29993594  1
  Au  Au214  1  0.29981031  0.36746147  0.69892961  1
  Au  Au215  1  0.36752501  0.29966084  0.69896788  1
  Au  Au216  1  0.36686378  0.30022392  0.30042880  1
  Au  Au217  1  0.30006779  0.36690638  0.30041880  1
  Au  Au218  1  0.29973869  0.29971783  0.36781987  1
  Au  Au219  1  0.69939098  0.29942463  0.63167796  1
  Au  Au220  1  0.29941825  0.69942179  0.63180131  1
  Au  Au221  1  0.63187961  0.29934324  0.69932109  1
  Au  Au222  1  0.29939328  0.63198133  0.69931399  1
  Au  Au223  1  0.63217227  0.29970855  0.29975767  1
  Au  Au224  1  0.29970984  0.63187899  0.29969277  1
  Au  Au225  1  0.29981005  0.29975468  0.63172693  1
  Au  Au226  1  0.36869194  0.36865648  0.76192991  1
  Au  Au227  1  0.36970591  0.23675970  0.62945962  1
  Au  Au228  1  0.23676156  0.36971363  0.62943954  1
  Au  Au229  1  0.63084699  0.36862321  0.76211769  1
  Au  Au230  1  0.36867830  0.63088594  0.76212709  1
  Au  Au231  1  0.62946534  0.23649046  0.62954189  1
  Au  Au232  1  0.23651239  0.62948792  0.62951282  1
  Au  Au233  1  0.36974061  0.23694461  0.37030696  1
  Au  Au234  1  0.23687530  0.36953328  0.37033875  1
  Au  Au235  1  0.63117179  0.63114449  0.76205238  1
  Au  Au236  1  0.76237956  0.36887252  0.63063996  1
  Au  Au237  1  0.36880686  0.76244209  0.63057347  1
  Au  Au238  1  0.62949203  0.23659963  0.36967058  1
  Au  Au239  1  0.23351378  0.62948655  0.36904877  1
  Au  Au240  1  0.36954025  0.37008336  0.23672430  1
  Au  Au241  1  0.63056477  0.76350371  0.62997109  1
  Au  Au242  1  0.76339139  0.63043935  0.62985569  1
  Au  Au243  1  0.76197398  0.36903733  0.36908753  1
  Au  Au244  1  0.36856423  0.76185455  0.36916251  1
  Au  Au245  1  0.62989064  0.36949118  0.23643107  1
  Au  Au246  1  0.37007415  0.63020250  0.23653241  1
  Au  Au247  1  0.76323322  0.63059128  0.36945864  1
  Au  Au248  1  0.63066101  0.76328355  0.36962537  1
  Au  Au249  1  0.63002288  0.63003328  0.23670026  1
