# generated using pymatgen
data_H(Pt56Au27)3
_symmetry_space_group_name_H-M   'P 1'
_cell_length_a   30.00000000
_cell_length_b   30.00000000
_cell_length_c   30.00000000
_cell_angle_alpha   90.00000000
_cell_angle_beta   90.00000000
_cell_angle_gamma   90.00000000
_symmetry_Int_Tables_number   1
_chemical_formula_structural   H(Pt56Au27)3
_chemical_formula_sum   'H1 Pt168 Au81'
_cell_volume   27000.00000000
_cell_formula_units_Z   1
loop_
 _symmetry_equiv_pos_site_id
 _symmetry_equiv_pos_as_xyz
  1  'x, y, z'
loop_
 _atom_site_type_symbol
 _atom_site_label
 _atom_site_symmetry_multiplicity
 _atom_site_fract_x
 _atom_site_fract_y
 _atom_site_fract_z
 _atom_site_occupancy
  H  H0  1  0.18225793  0.43225033  0.56781163  1
  Pt  Pt1  1  0.50101719  0.50103670  0.50051031  1
  Pt  Pt2  1  0.56616986  0.56620179  0.50048405  1
  Pt  Pt3  1  0.50014334  0.56618323  0.56634854  1
  Pt  Pt4  1  0.56616339  0.50008969  0.56630572  1
  Pt  Pt5  1  0.56609096  0.50023307  0.43445109  1
  Pt  Pt6  1  0.49983524  0.56612750  0.43456827  1
  Pt  Pt7  1  0.56606371  0.43467933  0.50032166  1
  Pt  Pt8  1  0.43453170  0.56591415  0.50062370  1
  Pt  Pt9  1  0.50028835  0.43473977  0.56605463  1
  Pt  Pt10  1  0.43496056  0.50018964  0.56611692  1
  Pt  Pt11  1  0.50034879  0.43477049  0.43458317  1
  Pt  Pt12  1  0.43462127  0.50015329  0.43473897  1
  Pt  Pt13  1  0.43530289  0.43504637  0.50041137  1
  Pt  Pt14  1  0.50017977  0.50007016  0.63150376  1
  Pt  Pt15  1  0.50045138  0.37025485  0.50014475  1
  Pt  Pt16  1  0.37013575  0.49982730  0.50056167  1
  Pt  Pt17  1  0.49926306  0.63072472  0.50016566  1
  Pt  Pt18  1  0.63072340  0.49933940  0.50011290  1
  Pt  Pt19  1  0.50003354  0.50015437  0.37016008  1
  Pt  Pt20  1  0.56582282  0.56595783  0.36919674  1
  Pt  Pt21  1  0.43396712  0.56561361  0.36874609  1
  Pt  Pt22  1  0.56562078  0.43420216  0.36862110  1
  Pt  Pt23  1  0.56614360  0.36918425  0.56564009  1
  Pt  Pt24  1  0.36961890  0.56618444  0.56584563  1
  Pt  Pt25  1  0.56610996  0.36947182  0.43442496  1
  Pt  Pt26  1  0.36948976  0.56585559  0.43473630  1
  Pt  Pt27  1  0.43457316  0.43403901  0.36894148  1
  Pt  Pt28  1  0.43416203  0.36882167  0.56485190  1
  Pt  Pt29  1  0.36937340  0.43366328  0.56515135  1
  Pt  Pt30  1  0.43407553  0.36941451  0.43509719  1
  Pt  Pt31  1  0.36983569  0.43381654  0.43475873  1
  Pt  Pt32  1  0.63124976  0.56577424  0.56606817  1
  Pt  Pt33  1  0.56568846  0.63131759  0.56601168  1
  Pt  Pt34  1  0.63089011  0.56573594  0.43411544  1
  Pt  Pt35  1  0.56553624  0.63081371  0.43409922  1
  Pt  Pt36  1  0.56613351  0.56614216  0.63067517  1
  Pt  Pt37  1  0.63157556  0.43410146  0.56620053  1
  Pt  Pt38  1  0.43441411  0.63201580  0.56626148  1
  Pt  Pt39  1  0.63108479  0.43399920  0.43381382  1
  Pt  Pt40  1  0.43382237  0.63101883  0.43394570  1
  Pt  Pt41  1  0.43406226  0.56605500  0.63110038  1
  Pt  Pt42  1  0.56602333  0.43401508  0.63121952  1
  Pt  Pt43  1  0.43414360  0.43394395  0.63051222  1
  Pt  Pt44  1  0.49994957  0.36929131  0.63129936  1
  Pt  Pt45  1  0.36933312  0.49967198  0.63088029  1
  Pt  Pt46  1  0.36672937  0.36736337  0.50014653  1
  Pt  Pt47  1  0.63127247  0.49966715  0.63122764  1
  Pt  Pt48  1  0.49976841  0.63142748  0.63129841  1
  Pt  Pt49  1  0.63185511  0.36937941  0.50005507  1
  Pt  Pt50  1  0.36942284  0.63185265  0.50037538  1
  Pt  Pt51  1  0.49994840  0.36894759  0.36867163  1
  Pt  Pt52  1  0.36909914  0.49962405  0.36884849  1
  Pt  Pt53  1  0.63120766  0.63117895  0.50008976  1
  Pt  Pt54  1  0.49958866  0.63126920  0.36904656  1
  Pt  Pt55  1  0.63137500  0.49975239  0.36905059  1
  Pt  Pt56  1  0.56605988  0.69425473  0.49982525  1
  Pt  Pt57  1  0.69429226  0.56600815  0.50007912  1
  Pt  Pt58  1  0.49880353  0.69671852  0.56599120  1
  Pt  Pt59  1  0.69660786  0.49856680  0.56597399  1
  Pt  Pt60  1  0.49839338  0.69587384  0.43378102  1
  Pt  Pt61  1  0.69595748  0.49852995  0.43379879  1
  Pt  Pt62  1  0.43358698  0.69753965  0.49999375  1
  Pt  Pt63  1  0.69746779  0.43372449  0.49995594  1
  Pt  Pt64  1  0.56606722  0.49997811  0.69659025  1
  Pt  Pt65  1  0.50000320  0.56610516  0.69659849  1
  Pt  Pt66  1  0.56645303  0.50029604  0.30509050  1
  Pt  Pt67  1  0.50002028  0.56642070  0.30503420  1
  Pt  Pt68  1  0.49991715  0.43390673  0.69645556  1
  Pt  Pt69  1  0.43399413  0.50007350  0.69641751  1
  Pt  Pt70  1  0.49998789  0.43357262  0.30495425  1
  Pt  Pt71  1  0.43363521  0.49995306  0.30511171  1
  Pt  Pt72  1  0.56646054  0.30497821  0.50003250  1
  Pt  Pt73  1  0.30529568  0.56604866  0.50043053  1
  Pt  Pt74  1  0.50004088  0.30496077  0.56593331  1
  Pt  Pt75  1  0.30428724  0.49894155  0.56584539  1
  Pt  Pt76  1  0.50002051  0.30568658  0.43380007  1
  Pt  Pt77  1  0.30589125  0.49958323  0.43414478  1
  Pt  Pt78  1  0.43357574  0.30476620  0.49995107  1
  Pt  Pt79  1  0.30410125  0.43386165  0.50111482  1
  Pt  Pt80  1  0.36812634  0.36813888  0.63039686  1
  Pt  Pt81  1  0.63205756  0.36830112  0.63162906  1
  Pt  Pt82  1  0.36832271  0.63206624  0.63152390  1
  Pt  Pt83  1  0.36827352  0.36828314  0.36899270  1
  Pt  Pt84  1  0.63217783  0.63223044  0.63190714  1
  Pt  Pt85  1  0.63153403  0.36836363  0.36795926  1
  Pt  Pt86  1  0.36841922  0.63161682  0.36793564  1
  Pt  Pt87  1  0.63205277  0.63193866  0.36801160  1
  Pt  Pt88  1  0.56629173  0.69716582  0.36687012  1
  Pt  Pt89  1  0.69730964  0.56634499  0.36691517  1
  Pt  Pt90  1  0.43388377  0.69796029  0.36676267  1
  Pt  Pt91  1  0.69786379  0.43397282  0.36670887  1
  Pt  Pt92  1  0.69775776  0.36730764  0.56564072  1
  Pt  Pt93  1  0.36715318  0.69787931  0.56572315  1
  Pt  Pt94  1  0.69723698  0.36745573  0.43403315  1
  Pt  Pt95  1  0.36748361  0.69724260  0.43397836  1
  Pt  Pt96  1  0.56600554  0.36731525  0.69729070  1
  Pt  Pt97  1  0.36716990  0.56585634  0.69692181  1
  Pt  Pt98  1  0.56585249  0.36615521  0.30199805  1
  Pt  Pt99  1  0.36637111  0.56582832  0.30211751  1
  Pt  Pt100  1  0.63348561  0.69786215  0.56586525  1
  Pt  Pt101  1  0.69788270  0.63371664  0.56591854  1
  Pt  Pt102  1  0.56579590  0.30246657  0.36671914  1
  Pt  Pt103  1  0.30278078  0.56565320  0.36696868  1
  Pt  Pt104  1  0.69765456  0.63344511  0.43381590  1
  Pt  Pt105  1  0.63346109  0.69740674  0.43372800  1
  Pt  Pt106  1  0.43381449  0.36741882  0.69705055  1
  Pt  Pt107  1  0.36794847  0.43399422  0.69709813  1
  Pt  Pt108  1  0.69741287  0.56588500  0.63275291  1
  Pt  Pt109  1  0.56602666  0.69752498  0.63292438  1
  Pt  Pt110  1  0.36642879  0.43374944  0.30235209  1
  Pt  Pt111  1  0.43387037  0.36626832  0.30204528  1
  Pt  Pt112  1  0.56593873  0.63253685  0.69729801  1
  Pt  Pt113  1  0.63246962  0.56595951  0.69712638  1
  Pt  Pt114  1  0.43396174  0.30251524  0.36673287  1
  Pt  Pt115  1  0.30236600  0.43398705  0.36669088  1
  Pt  Pt116  1  0.63334695  0.56586741  0.30240243  1
  Pt  Pt117  1  0.56586919  0.63329662  0.30227041  1
  Pt  Pt118  1  0.30141235  0.36674329  0.56488749  1
  Pt  Pt119  1  0.36644030  0.30155090  0.56490798  1
  Pt  Pt120  1  0.43439316  0.69889557  0.63285530  1
  Pt  Pt121  1  0.69866367  0.43432759  0.63277931  1
  Pt  Pt122  1  0.36625910  0.30230289  0.43481046  1
  Pt  Pt123  1  0.30197188  0.36696828  0.43503742  1
  Pt  Pt124  1  0.63284824  0.43413760  0.69778626  1
  Pt  Pt125  1  0.43413160  0.63276334  0.69765458  1
  Pt  Pt126  1  0.63336692  0.43416197  0.30151079  1
  Pt  Pt127  1  0.43403984  0.63339115  0.30157100  1
  Pt  Pt128  1  0.63320756  0.30204327  0.56536309  1
  Pt  Pt129  1  0.30200543  0.63326256  0.56525406  1
  Pt  Pt130  1  0.63305949  0.30213774  0.43412863  1
  Pt  Pt131  1  0.30248140  0.63279804  0.43417375  1
  Pt  Pt132  1  0.56550551  0.30236807  0.63266919  1
  Pt  Pt133  1  0.30254940  0.56527795  0.63198754  1
  Pt  Pt134  1  0.43436845  0.30205646  0.63267719  1
  Pt  Pt135  1  0.30216436  0.43440044  0.63187875  1
  Pt  Pt136  1  0.49998232  0.49989885  0.76002963  1
  Pt  Pt137  1  0.49992590  0.23994686  0.49960286  1
  Pt  Pt138  1  0.23962199  0.49996091  0.49959295  1
  Pt  Pt139  1  0.75994757  0.50210640  0.49966622  1
  Pt  Pt140  1  0.50202294  0.75980904  0.49949121  1
  Pt  Pt141  1  0.50000618  0.50009680  0.24036842  1
  Pt  Pt142  1  0.56429971  0.56433134  0.24002427  1
  Pt  Pt143  1  0.43548035  0.56403956  0.24008846  1
  Pt  Pt144  1  0.56400567  0.43561519  0.24028724  1
  Pt  Pt145  1  0.69517555  0.69516055  0.49979956  1
  Pt  Pt146  1  0.43575593  0.43562361  0.24031606  1
  Pt  Pt147  1  0.56387343  0.23975440  0.56386777  1
  Pt  Pt148  1  0.23970294  0.56416781  0.56367286  1
  Pt  Pt149  1  0.56383147  0.24006072  0.43550570  1
  Pt  Pt150  1  0.24041894  0.56381418  0.43550226  1
  Pt  Pt151  1  0.50003774  0.69533663  0.69499381  1
  Pt  Pt152  1  0.69536544  0.50001521  0.69487954  1
  Pt  Pt153  1  0.69485256  0.50001934  0.30457424  1
  Pt  Pt154  1  0.49987557  0.69476089  0.30468298  1
  Pt  Pt155  1  0.43592356  0.23972891  0.56388571  1
  Pt  Pt156  1  0.23398714  0.43629547  0.56394747  1
  Pt  Pt157  1  0.43579329  0.24027321  0.43549485  1
  Pt  Pt158  1  0.24004949  0.43607710  0.43524398  1
  Pt  Pt159  1  0.69497488  0.30415844  0.49972384  1
  Pt  Pt160  1  0.30417031  0.69487475  0.49954186  1
  Pt  Pt161  1  0.75981358  0.56497768  0.56438077  1
  Pt  Pt162  1  0.56489484  0.75984352  0.56422122  1
  Pt  Pt163  1  0.75957882  0.56503775  0.43511814  1
  Pt  Pt164  1  0.56495133  0.75955403  0.43507947  1
  Pt  Pt165  1  0.49986981  0.30465049  0.69459461  1
  Pt  Pt166  1  0.30464062  0.49959143  0.69413235  1
  Pt  Pt167  1  0.49985585  0.30439745  0.30471578  1
  Pt  Pt168  1  0.30467687  0.49993238  0.30482670  1
  Au  Au169  1  0.76940943  0.43484306  0.56448185  1
  Au  Au170  1  0.43492889  0.76939120  0.56449766  1
  Au  Au171  1  0.76928470  0.43500746  0.43510098  1
  Au  Au172  1  0.43485939  0.76924338  0.43496199  1
  Au  Au173  1  0.56537814  0.56558636  0.76853599  1
  Au  Au174  1  0.29764708  0.29799127  0.50008228  1
  Au  Au175  1  0.43451544  0.56533091  0.76842730  1
  Au  Au176  1  0.56539497  0.43456315  0.76846300  1
  Au  Au177  1  0.43447778  0.43449160  0.76856766  1
  Au  Au178  1  0.49987561  0.36732600  0.76303770  1
  Au  Au179  1  0.36718836  0.49993750  0.76288741  1
  Au  Au180  1  0.50000338  0.23500091  0.63063244  1
  Au  Au181  1  0.23511276  0.49958203  0.63039617  1
  Au  Au182  1  0.36940602  0.23505582  0.49951563  1
  Au  Au183  1  0.23498399  0.36993608  0.50000479  1
  Au  Au184  1  0.50005108  0.63288253  0.76336670  1
  Au  Au185  1  0.63266584  0.50030516  0.76321404  1
  Au  Au186  1  0.63048707  0.23504132  0.49948710  1
  Au  Au187  1  0.23506038  0.63044247  0.49934581  1
  Au  Au188  1  0.23602741  0.49997220  0.36903133  1
  Au  Au189  1  0.49990568  0.23578806  0.36905808  1
  Au  Au190  1  0.76455556  0.50085489  0.63158949  1
  Au  Au191  1  0.50106286  0.76463430  0.63167256  1
  Au  Au192  1  0.76357398  0.36660030  0.49961054  1
  Au  Au193  1  0.36656953  0.76358820  0.49964343  1
  Au  Au194  1  0.49989967  0.36898597  0.23558722  1
  Au  Au195  1  0.36904900  0.49974545  0.23575948  1
  Au  Au196  1  0.63090764  0.76388087  0.49960182  1
  Au  Au197  1  0.76398497  0.63088698  0.49986442  1
  Au  Au198  1  0.50069433  0.76337249  0.36793457  1
  Au  Au199  1  0.76340772  0.50068763  0.36794648  1
  Au  Au200  1  0.50003304  0.63055345  0.23521518  1
  Au  Au201  1  0.63060330  0.50011732  0.23511814  1
  Au  Au202  1  0.70085385  0.70075959  0.36746666  1
  Au  Au203  1  0.70002358  0.36732261  0.69968160  1
  Au  Au204  1  0.36745376  0.69993178  0.69964505  1
  Au  Au205  1  0.69940584  0.36718431  0.29969375  1
  Au  Au206  1  0.36716337  0.69944832  0.29966696  1
  Au  Au207  1  0.69935765  0.29945000  0.36758486  1
  Au  Au208  1  0.29943452  0.69935163  0.36761724  1
  Au  Au209  1  0.70041919  0.70036011  0.63254329  1
  Au  Au210  1  0.70051495  0.63251109  0.69960292  1
  Au  Au211  1  0.63251535  0.70050048  0.69960762  1
  Au  Au212  1  0.63331367  0.69972351  0.30017935  1
  Au  Au213  1  0.70028238  0.63257663  0.29986111  1
  Au  Au214  1  0.29982838  0.36810934  0.69837796  1
  Au  Au215  1  0.36716373  0.30002961  0.69840011  1
  Au  Au216  1  0.36673295  0.30021018  0.30057478  1
  Au  Au217  1  0.30007654  0.36673648  0.30055404  1
  Au  Au218  1  0.29952985  0.29992472  0.36843131  1
  Au  Au219  1  0.69929477  0.29934277  0.63164321  1
  Au  Au220  1  0.29936033  0.69932423  0.63172431  1
  Au  Au221  1  0.63180406  0.29919519  0.69928490  1
  Au  Au222  1  0.29926002  0.63161901  0.69908857  1
  Au  Au223  1  0.63233689  0.29963401  0.29989597  1
  Au  Au224  1  0.29973898  0.63221012  0.29990186  1
  Au  Au225  1  0.29949295  0.30010510  0.63079127  1
  Au  Au226  1  0.36852946  0.36870535  0.76159597  1
  Au  Au227  1  0.36965625  0.23675910  0.62934260  1
  Au  Au228  1  0.23666750  0.37026585  0.62934189  1
  Au  Au229  1  0.63092131  0.36845246  0.76201730  1
  Au  Au230  1  0.36848787  0.63075432  0.76187131  1
  Au  Au231  1  0.62948785  0.23640481  0.62943616  1
  Au  Au232  1  0.23647579  0.62940666  0.62939472  1
  Au  Au233  1  0.36950269  0.23707610  0.37056301  1
  Au  Au234  1  0.23693804  0.36959693  0.37049106  1
  Au  Au235  1  0.63133569  0.63117603  0.76199367  1
  Au  Au236  1  0.76238834  0.36881930  0.63059280  1
  Au  Au237  1  0.36875407  0.76249475  0.63062208  1
  Au  Au238  1  0.62985435  0.23660120  0.36991218  1
  Au  Au239  1  0.23680384  0.62966734  0.36986622  1
  Au  Au240  1  0.36961325  0.36995204  0.23678096  1
  Au  Au241  1  0.63036572  0.76341404  0.62993072  1
  Au  Au242  1  0.76342982  0.63011897  0.63011508  1
  Au  Au243  1  0.76196347  0.36869693  0.36928683  1
  Au  Au244  1  0.36862506  0.76203384  0.36914450  1
  Au  Au245  1  0.62987503  0.36956759  0.23653278  1
  Au  Au246  1  0.36951842  0.62985943  0.23648654  1
  Au  Au247  1  0.76335507  0.63075269  0.36962683  1
  Au  Au248  1  0.63053857  0.76314117  0.36960163  1
  Au  Au249  1  0.63025172  0.62993264  0.23677590  1
