# generated using pymatgen
data_H(Pt56Au27)3
_symmetry_space_group_name_H-M   'P 1'
_cell_length_a   30.00000000
_cell_length_b   30.00000000
_cell_length_c   30.00000000
_cell_angle_alpha   90.00000000
_cell_angle_beta   90.00000000
_cell_angle_gamma   90.00000000
_symmetry_Int_Tables_number   1
_chemical_formula_structural   H(Pt56Au27)3
_chemical_formula_sum   'H1 Pt168 Au81'
_cell_volume   27000.00000000
_cell_formula_units_Z   1
loop_
 _symmetry_equiv_pos_site_id
 _symmetry_equiv_pos_as_xyz
  1  'x, y, z'
loop_
 _atom_site_type_symbol
 _atom_site_label
 _atom_site_symmetry_multiplicity
 _atom_site_fract_x
 _atom_site_fract_y
 _atom_site_fract_z
 _atom_site_occupancy
  H  H0  1  0.80550612  0.50020194  0.66650193  1
  Pt  Pt1  1  0.50100365  0.50097489  0.50068782  1
  Pt  Pt2  1  0.56648425  0.56581093  0.50093265  1
  Pt  Pt3  1  0.50005144  0.56604523  0.56649983  1
  Pt  Pt4  1  0.56601418  0.49997503  0.56672883  1
  Pt  Pt5  1  0.56599912  0.50022681  0.43424205  1
  Pt  Pt6  1  0.50037857  0.56619771  0.43466279  1
  Pt  Pt7  1  0.56634948  0.43506425  0.50071666  1
  Pt  Pt8  1  0.43482237  0.56613533  0.50050307  1
  Pt  Pt9  1  0.50017639  0.43487464  0.56629996  1
  Pt  Pt10  1  0.43476685  0.50030070  0.56630093  1
  Pt  Pt11  1  0.50034737  0.43494134  0.43475863  1
  Pt  Pt12  1  0.43493615  0.50040465  0.43485008  1
  Pt  Pt13  1  0.43512724  0.43507633  0.50049079  1
  Pt  Pt14  1  0.49992141  0.50003190  0.63170705  1
  Pt  Pt15  1  0.50045728  0.37067683  0.50027199  1
  Pt  Pt16  1  0.37057884  0.50028480  0.50028671  1
  Pt  Pt17  1  0.49952093  0.63064040  0.50027408  1
  Pt  Pt18  1  0.63105441  0.49927183  0.50076180  1
  Pt  Pt19  1  0.49989016  0.50025441  0.37015185  1
  Pt  Pt20  1  0.56607051  0.56588391  0.36920993  1
  Pt  Pt21  1  0.43415719  0.56584398  0.36874537  1
  Pt  Pt22  1  0.56570839  0.43432479  0.36870406  1
  Pt  Pt23  1  0.56611935  0.36946103  0.56561403  1
  Pt  Pt24  1  0.36941058  0.56619000  0.56565255  1
  Pt  Pt25  1  0.56615919  0.36985136  0.43460496  1
  Pt  Pt26  1  0.36973245  0.56624772  0.43463753  1
  Pt  Pt27  1  0.43404489  0.43410005  0.36952017  1
  Pt  Pt28  1  0.43391584  0.36888161  0.56489690  1
  Pt  Pt29  1  0.36898293  0.43381721  0.56487590  1
  Pt  Pt30  1  0.43396287  0.36936028  0.43523617  1
  Pt  Pt31  1  0.36945417  0.43377454  0.43525127  1
  Pt  Pt32  1  0.63160164  0.56517731  0.56636093  1
  Pt  Pt33  1  0.56552562  0.63131738  0.56607186  1
  Pt  Pt34  1  0.63119520  0.56523458  0.43469980  1
  Pt  Pt35  1  0.56598844  0.63067252  0.43435076  1
  Pt  Pt36  1  0.56597354  0.56608850  0.63074032  1
  Pt  Pt37  1  0.63233279  0.43460036  0.56660303  1
  Pt  Pt38  1  0.43425618  0.63175220  0.56628367  1
  Pt  Pt39  1  0.63128858  0.43433470  0.43411897  1
  Pt  Pt40  1  0.43413520  0.63125060  0.43401134  1
  Pt  Pt41  1  0.43401181  0.56609218  0.63140160  1
  Pt  Pt42  1  0.56602008  0.43403669  0.63132055  1
  Pt  Pt43  1  0.43381260  0.43386192  0.63045814  1
  Pt  Pt44  1  0.49986963  0.36948773  0.63124041  1
  Pt  Pt45  1  0.36950289  0.49991425  0.63126250  1
  Pt  Pt46  1  0.36683562  0.36672569  0.49997969  1
  Pt  Pt47  1  0.63116323  0.49960480  0.63151157  1
  Pt  Pt48  1  0.49961561  0.63140188  0.63132559  1
  Pt  Pt49  1  0.63190158  0.36966727  0.50030644  1
  Pt  Pt50  1  0.36956115  0.63198001  0.50019674  1
  Pt  Pt51  1  0.49978777  0.36929807  0.36907786  1
  Pt  Pt52  1  0.36932339  0.49984291  0.36927739  1
  Pt  Pt53  1  0.63121104  0.63106751  0.50048247  1
  Pt  Pt54  1  0.49981921  0.63128474  0.36909159  1
  Pt  Pt55  1  0.63160518  0.49974818  0.36896072  1
  Pt  Pt56  1  0.56598475  0.69434704  0.50005710  1
  Pt  Pt57  1  0.69455864  0.56564375  0.50062153  1
  Pt  Pt58  1  0.49852245  0.69675492  0.56598157  1
  Pt  Pt59  1  0.69867444  0.49839775  0.56817841  1
  Pt  Pt60  1  0.49869904  0.69588863  0.43394781  1
  Pt  Pt61  1  0.69615009  0.49854260  0.43401720  1
  Pt  Pt62  1  0.43357438  0.69771941  0.50000244  1
  Pt  Pt63  1  0.69767673  0.43390094  0.50049380  1
  Pt  Pt64  1  0.56595616  0.50006034  0.69682105  1
  Pt  Pt65  1  0.49993821  0.56614794  0.69682315  1
  Pt  Pt66  1  0.56662328  0.50019548  0.30514071  1
  Pt  Pt67  1  0.50011120  0.56650312  0.30496741  1
  Pt  Pt68  1  0.49981520  0.43392453  0.69659599  1
  Pt  Pt69  1  0.43385608  0.49998641  0.69657590  1
  Pt  Pt70  1  0.49987050  0.43367380  0.30518999  1
  Pt  Pt71  1  0.43370706  0.49994993  0.30538067  1
  Pt  Pt72  1  0.56629619  0.30521734  0.49996841  1
  Pt  Pt73  1  0.30525601  0.56638324  0.50000751  1
  Pt  Pt74  1  0.50003184  0.30517436  0.56591692  1
  Pt  Pt75  1  0.30527295  0.50001123  0.56581979  1
  Pt  Pt76  1  0.50002464  0.30582202  0.43389887  1
  Pt  Pt77  1  0.30588758  0.49998925  0.43392831  1
  Pt  Pt78  1  0.43366518  0.30477428  0.49995669  1
  Pt  Pt79  1  0.30484573  0.43355658  0.49995591  1
  Pt  Pt80  1  0.36784417  0.36783080  0.63028457  1
  Pt  Pt81  1  0.63180037  0.36820122  0.63142236  1
  Pt  Pt82  1  0.36833303  0.63212225  0.63165053  1
  Pt  Pt83  1  0.36803206  0.36802891  0.36916297  1
  Pt  Pt84  1  0.63175352  0.63260281  0.63132324  1
  Pt  Pt85  1  0.63159804  0.36858059  0.36800254  1
  Pt  Pt86  1  0.36846329  0.63173552  0.36795402  1
  Pt  Pt87  1  0.63189488  0.63168680  0.36805750  1
  Pt  Pt88  1  0.56630700  0.69706228  0.36691642  1
  Pt  Pt89  1  0.69727733  0.56621248  0.36687425  1
  Pt  Pt90  1  0.43401433  0.69797868  0.36681852  1
  Pt  Pt91  1  0.69798837  0.43392864  0.36678691  1
  Pt  Pt92  1  0.69782578  0.36670347  0.56558055  1
  Pt  Pt93  1  0.36723995  0.69789068  0.56570046  1
  Pt  Pt94  1  0.69708289  0.36756577  0.43393682  1
  Pt  Pt95  1  0.36753867  0.69744702  0.43400168  1
  Pt  Pt96  1  0.56598281  0.36735185  0.69727807  1
  Pt  Pt97  1  0.36722963  0.56611017  0.69740599  1
  Pt  Pt98  1  0.56580873  0.36654488  0.30218240  1
  Pt  Pt99  1  0.36644477  0.56597571  0.30208488  1
  Pt  Pt100  1  0.63352623  0.69822167  0.56580037  1
  Pt  Pt101  1  0.69767010  0.63415146  0.56574241  1
  Pt  Pt102  1  0.56574739  0.30285446  0.36696440  1
  Pt  Pt103  1  0.30285837  0.56587690  0.36703691  1
  Pt  Pt104  1  0.69709317  0.63318396  0.43382142  1
  Pt  Pt105  1  0.63316256  0.69760732  0.43370738  1
  Pt  Pt106  1  0.43363176  0.36740514  0.69683811  1
  Pt  Pt107  1  0.36750251  0.43359416  0.69687234  1
  Pt  Pt108  1  0.69750316  0.56650225  0.63265900  1
  Pt  Pt109  1  0.56585934  0.69777838  0.63285037  1
  Pt  Pt110  1  0.36653427  0.43363928  0.30246633  1
  Pt  Pt111  1  0.43375017  0.36642520  0.30246343  1
  Pt  Pt112  1  0.56583702  0.63257416  0.69698538  1
  Pt  Pt113  1  0.63247431  0.56601221  0.69688540  1
  Pt  Pt114  1  0.43389272  0.30250357  0.36691594  1
  Pt  Pt115  1  0.30253715  0.43377898  0.36706912  1
  Pt  Pt116  1  0.63351266  0.56574608  0.30210802  1
  Pt  Pt117  1  0.56592042  0.63315096  0.30231938  1
  Pt  Pt118  1  0.30141556  0.36585517  0.56470083  1
  Pt  Pt119  1  0.36591375  0.30140382  0.56469557  1
  Pt  Pt120  1  0.43420016  0.69870052  0.63302983  1
  Pt  Pt121  1  0.69902792  0.43354640  0.63322711  1
  Pt  Pt122  1  0.36616165  0.30181265  0.43464783  1
  Pt  Pt123  1  0.30180685  0.36607090  0.43460210  1
  Pt  Pt124  1  0.63303043  0.43423801  0.69771355  1
  Pt  Pt125  1  0.43407041  0.63295083  0.69782721  1
  Pt  Pt126  1  0.63362259  0.43411946  0.30153551  1
  Pt  Pt127  1  0.43418205  0.63363461  0.30159097  1
  Pt  Pt128  1  0.63296632  0.30198270  0.56517872  1
  Pt  Pt129  1  0.30212299  0.63314643  0.56531025  1
  Pt  Pt130  1  0.63271270  0.30235646  0.43397957  1
  Pt  Pt131  1  0.30242707  0.63299909  0.43404996  1
  Pt  Pt132  1  0.56552168  0.30254005  0.63248984  1
  Pt  Pt133  1  0.30253696  0.56552461  0.63241839  1
  Pt  Pt134  1  0.43422774  0.30215983  0.63249405  1
  Pt  Pt135  1  0.30227487  0.43416111  0.63237677  1
  Pt  Pt136  1  0.49986053  0.49995579  0.76010030  1
  Pt  Pt137  1  0.49967763  0.24011098  0.49945441  1
  Pt  Pt138  1  0.24010181  0.49966177  0.49944760  1
  Pt  Pt139  1  0.76022702  0.50175667  0.50021420  1
  Pt  Pt140  1  0.50202199  0.75996773  0.49965455  1
  Pt  Pt141  1  0.49994110  0.49997235  0.24070022  1
  Pt  Pt142  1  0.56440050  0.56418420  0.24007998  1
  Pt  Pt143  1  0.43544296  0.56414445  0.24028288  1
  Pt  Pt144  1  0.56410514  0.43557349  0.24027594  1
  Pt  Pt145  1  0.69493592  0.69555981  0.49950967  1
  Pt  Pt146  1  0.43549648  0.43552302  0.24069427  1
  Pt  Pt147  1  0.56362057  0.23968305  0.56355353  1
  Pt  Pt148  1  0.23980227  0.56369822  0.56358241  1
  Pt  Pt149  1  0.56370670  0.24014249  0.43546780  1
  Pt  Pt150  1  0.24018785  0.56385951  0.43560826  1
  Pt  Pt151  1  0.49998909  0.69545523  0.69506425  1
  Pt  Pt152  1  0.69586564  0.50031981  0.69401116  1
  Pt  Pt153  1  0.69509678  0.49995330  0.30452134  1
  Pt  Pt154  1  0.50010485  0.69486830  0.30462417  1
  Pt  Pt155  1  0.43581710  0.23989403  0.56389336  1
  Pt  Pt156  1  0.23983929  0.43567566  0.56380613  1
  Pt  Pt157  1  0.43574723  0.24016324  0.43536164  1
  Pt  Pt158  1  0.24010844  0.43567939  0.43539479  1
  Pt  Pt159  1  0.69437415  0.30386432  0.49938494  1
  Pt  Pt160  1  0.30416116  0.69484957  0.49960684  1
  Pt  Pt161  1  0.75976717  0.56598220  0.56399065  1
  Pt  Pt162  1  0.56488080  0.76006509  0.56436538  1
  Pt  Pt163  1  0.75954056  0.56470163  0.43548172  1
  Pt  Pt164  1  0.56494021  0.75967091  0.43500807  1
  Pt  Pt165  1  0.49982976  0.30475680  0.69432552  1
  Pt  Pt166  1  0.30482849  0.49986793  0.69414745  1
  Pt  Pt167  1  0.49984200  0.30482486  0.30501209  1
  Pt  Pt168  1  0.30508494  0.49978561  0.30526819  1
  Au  Au169  1  0.76940622  0.43308723  0.56411163  1
  Au  Au170  1  0.43457886  0.76925254  0.56448909  1
  Au  Au171  1  0.76905367  0.43481239  0.43529080  1
  Au  Au172  1  0.43488580  0.76929401  0.43512542  1
  Au  Au173  1  0.56549818  0.56554760  0.76849537  1
  Au  Au174  1  0.29742527  0.29735913  0.49961988  1
  Au  Au175  1  0.43439644  0.56541900  0.76845987  1
  Au  Au176  1  0.56542830  0.43459436  0.76842677  1
  Au  Au177  1  0.43440572  0.43442859  0.76862024  1
  Au  Au178  1  0.49962802  0.36725361  0.76288735  1
  Au  Au179  1  0.36715883  0.49959869  0.76290517  1
  Au  Au180  1  0.50001516  0.23528493  0.63060099  1
  Au  Au181  1  0.23523513  0.49965761  0.63036891  1
  Au  Au182  1  0.36941342  0.23497780  0.49949725  1
  Au  Au183  1  0.23503492  0.36942242  0.49949400  1
  Au  Au184  1  0.50013999  0.63291240  0.76342340  1
  Au  Au185  1  0.63298585  0.50039238  0.76296003  1
  Au  Au186  1  0.63015934  0.23483233  0.49941632  1
  Au  Au187  1  0.23510228  0.63043780  0.49946242  1
  Au  Au188  1  0.23612312  0.49992568  0.36913769  1
  Au  Au189  1  0.49990420  0.23601223  0.36900274  1
  Au  Au190  1  0.76629706  0.50085086  0.63099371  1
  Au  Au191  1  0.50077716  0.76442645  0.63169414  1
  Au  Au192  1  0.76338635  0.36554772  0.49904962  1
  Au  Au193  1  0.36617962  0.76385969  0.49961399  1
  Au  Au194  1  0.49985793  0.36902592  0.23577795  1
  Au  Au195  1  0.36914501  0.49987051  0.23582093  1
  Au  Au196  1  0.63072070  0.76409686  0.49968425  1
  Au  Au197  1  0.76353600  0.63167355  0.49898354  1
  Au  Au198  1  0.50059724  0.76340679  0.36798977  1
  Au  Au199  1  0.76347467  0.50052324  0.36799016  1
  Au  Au200  1  0.50006152  0.63066579  0.23517930  1
  Au  Au201  1  0.63075367  0.49981627  0.23513611  1
  Au  Au202  1  0.70020635  0.70039566  0.36739076  1
  Au  Au203  1  0.69953721  0.36628599  0.69927461  1
  Au  Au204  1  0.36682431  0.69991431  0.69958658  1
  Au  Au205  1  0.69941021  0.36686395  0.29994805  1
  Au  Au206  1  0.36727085  0.69955437  0.29973122  1
  Au  Au207  1  0.69910099  0.29945169  0.36760925  1
  Au  Au208  1  0.29948749  0.69925216  0.36754729  1
  Au  Au209  1  0.70075154  0.70131409  0.63191611  1
  Au  Au210  1  0.69989182  0.63337460  0.69887870  1
  Au  Au211  1  0.63249702  0.70073372  0.69921807  1
  Au  Au212  1  0.63247532  0.70021909  0.29973660  1
  Au  Au213  1  0.69974078  0.63325356  0.30015495  1
  Au  Au214  1  0.29977185  0.36736943  0.69851380  1
  Au  Au215  1  0.36735427  0.29976296  0.69853141  1
  Au  Au216  1  0.36677960  0.30013758  0.30063517  1
  Au  Au217  1  0.30012068  0.36676479  0.30063909  1
  Au  Au218  1  0.29935442  0.29932546  0.36804905  1
  Au  Au219  1  0.69902877  0.29870478  0.63137918  1
  Au  Au220  1  0.29930873  0.69915579  0.63153789  1
  Au  Au221  1  0.63153069  0.29888659  0.69907117  1
  Au  Au222  1  0.29910444  0.63170870  0.69903800  1
  Au  Au223  1  0.63187833  0.29967383  0.29980839  1
  Au  Au224  1  0.29964516  0.63213237  0.29978932  1
  Au  Au225  1  0.29952589  0.29954884  0.63106275  1
  Au  Au226  1  0.36857924  0.36858256  0.76166997  1
  Au  Au227  1  0.36969388  0.23665002  0.62917935  1
  Au  Au228  1  0.23663741  0.36971946  0.62924064  1
  Au  Au229  1  0.63081478  0.36845674  0.76187009  1
  Au  Au230  1  0.36844150  0.63111463  0.76200854  1
  Au  Au231  1  0.62904335  0.23615498  0.62923383  1
  Au  Au232  1  0.23626276  0.62915356  0.62923384  1
  Au  Au233  1  0.36940459  0.23682611  0.37037789  1
  Au  Au234  1  0.23677804  0.36936450  0.37034399  1
  Au  Au235  1  0.63106685  0.63134180  0.76167553  1
  Au  Au236  1  0.76268641  0.36741186  0.63024944  1
  Au  Au237  1  0.36867590  0.76252847  0.63063825  1
  Au  Au238  1  0.62960343  0.23665328  0.36970580  1
  Au  Au239  1  0.23671477  0.62965965  0.36984849  1
  Au  Au240  1  0.36963713  0.36972403  0.23681950  1
  Au  Au241  1  0.63035963  0.76360456  0.62999715  1
  Au  Au242  1  0.76334349  0.63130717  0.62973535  1
  Au  Au243  1  0.76211753  0.36861020  0.36925946  1
  Au  Au244  1  0.36864113  0.76215084  0.36920915  1
  Au  Au245  1  0.62986092  0.36955376  0.23657441  1
  Au  Au246  1  0.36946773  0.62989520  0.23650354  1
  Au  Au247  1  0.76314474  0.63035433  0.36998321  1
  Au  Au248  1  0.63038228  0.76336125  0.36926707  1
  Au  Au249  1  0.63001848  0.63017637  0.23673767  1
