# generated using pymatgen
data_H(Pt56Au27)3
_symmetry_space_group_name_H-M   'P 1'
_cell_length_a   30.00000000
_cell_length_b   30.00000000
_cell_length_c   30.00000000
_cell_angle_alpha   90.00000000
_cell_angle_beta   90.00000000
_cell_angle_gamma   90.00000000
_symmetry_Int_Tables_number   1
_chemical_formula_structural   H(Pt56Au27)3
_chemical_formula_sum   'H1 Pt168 Au81'
_cell_volume   27000.00000000
_cell_formula_units_Z   1
loop_
 _symmetry_equiv_pos_site_id
 _symmetry_equiv_pos_as_xyz
  1  'x, y, z'
loop_
 _atom_site_type_symbol
 _atom_site_label
 _atom_site_symmetry_multiplicity
 _atom_site_fract_x
 _atom_site_fract_y
 _atom_site_fract_z
 _atom_site_occupancy
  H  H0  1  0.73346962  0.50168939  0.26476733  1
  Pt  Pt1  1  0.49987750  0.50103169  0.50166378  1
  Pt  Pt2  1  0.56607676  0.56584963  0.50055670  1
  Pt  Pt3  1  0.49994298  0.56633478  0.56653297  1
  Pt  Pt4  1  0.56587751  0.50001936  0.56646153  1
  Pt  Pt5  1  0.56500605  0.49999613  0.43539157  1
  Pt  Pt6  1  0.50012330  0.56578870  0.43450688  1
  Pt  Pt7  1  0.56588587  0.43491132  0.50052657  1
  Pt  Pt8  1  0.43434115  0.56621168  0.50039461  1
  Pt  Pt9  1  0.50006316  0.43444423  0.56633197  1
  Pt  Pt10  1  0.43436363  0.50029334  0.56636040  1
  Pt  Pt11  1  0.50014094  0.43501652  0.43472407  1
  Pt  Pt12  1  0.43450417  0.50034034  0.43482804  1
  Pt  Pt13  1  0.43486865  0.43490062  0.50052829  1
  Pt  Pt14  1  0.49989333  0.50008110  0.63134280  1
  Pt  Pt15  1  0.50038488  0.37032873  0.50012627  1
  Pt  Pt16  1  0.37017608  0.50030356  0.50029432  1
  Pt  Pt17  1  0.49944419  0.63051748  0.50009622  1
  Pt  Pt18  1  0.63072803  0.49935421  0.50035664  1
  Pt  Pt19  1  0.49977478  0.50006590  0.36997711  1
  Pt  Pt20  1  0.56615768  0.56483673  0.36913255  1
  Pt  Pt21  1  0.43407654  0.56560525  0.36861648  1
  Pt  Pt22  1  0.56590601  0.43516076  0.36862592  1
  Pt  Pt23  1  0.56617351  0.36906280  0.56546671  1
  Pt  Pt24  1  0.36898865  0.56631489  0.56571072  1
  Pt  Pt25  1  0.56606818  0.36986625  0.43439688  1
  Pt  Pt26  1  0.36939830  0.56612573  0.43436522  1
  Pt  Pt27  1  0.43407551  0.43422283  0.36926052  1
  Pt  Pt28  1  0.43394527  0.36876528  0.56501051  1
  Pt  Pt29  1  0.36886255  0.43369286  0.56504697  1
  Pt  Pt30  1  0.43425526  0.36933833  0.43490664  1
  Pt  Pt31  1  0.36937564  0.43396082  0.43499547  1
  Pt  Pt32  1  0.63124999  0.56562779  0.56607632  1
  Pt  Pt33  1  0.56582872  0.63130262  0.56588532  1
  Pt  Pt34  1  0.63077271  0.56470010  0.43387377  1
  Pt  Pt35  1  0.56576358  0.63044124  0.43406858  1
  Pt  Pt36  1  0.56611813  0.56615137  0.63065224  1
  Pt  Pt37  1  0.63155671  0.43409645  0.56625639  1
  Pt  Pt38  1  0.43404443  0.63168530  0.56620900  1
  Pt  Pt39  1  0.63099597  0.43497942  0.43349026  1
  Pt  Pt40  1  0.43417217  0.63107880  0.43370231  1
  Pt  Pt41  1  0.43388124  0.56628320  0.63133207  1
  Pt  Pt42  1  0.56603114  0.43389693  0.63117519  1
  Pt  Pt43  1  0.43380009  0.43365793  0.63055410  1
  Pt  Pt44  1  0.49997877  0.36928551  0.63133964  1
  Pt  Pt45  1  0.36950472  0.49992060  0.63111433  1
  Pt  Pt46  1  0.36703180  0.36698911  0.49987444  1
  Pt  Pt47  1  0.63118678  0.49968719  0.63126490  1
  Pt  Pt48  1  0.49978401  0.63132720  0.63125154  1
  Pt  Pt49  1  0.63167436  0.36958047  0.49984624  1
  Pt  Pt50  1  0.36934285  0.63185443  0.50003088  1
  Pt  Pt51  1  0.50011977  0.36932901  0.36886295  1
  Pt  Pt52  1  0.36897724  0.49979181  0.36875222  1
  Pt  Pt53  1  0.63109044  0.63101620  0.49988058  1
  Pt  Pt54  1  0.50002902  0.63117639  0.36904166  1
  Pt  Pt55  1  0.63279385  0.49976305  0.36747524  1
  Pt  Pt56  1  0.56605499  0.69426091  0.49990986  1
  Pt  Pt57  1  0.69421328  0.56586075  0.50001663  1
  Pt  Pt58  1  0.49877751  0.69651557  0.56590107  1
  Pt  Pt59  1  0.69653782  0.49866562  0.56611487  1
  Pt  Pt60  1  0.49879639  0.69579231  0.43376649  1
  Pt  Pt61  1  0.69637854  0.49869055  0.43389346  1
  Pt  Pt62  1  0.43375054  0.69731389  0.49994603  1
  Pt  Pt63  1  0.69723505  0.43385100  0.50002952  1
  Pt  Pt64  1  0.56601495  0.50002444  0.69658251  1
  Pt  Pt65  1  0.50007672  0.56604475  0.69660098  1
  Pt  Pt66  1  0.56644933  0.50014562  0.30435675  1
  Pt  Pt67  1  0.50017618  0.56619595  0.30505808  1
  Pt  Pt68  1  0.50000569  0.43390852  0.69633570  1
  Pt  Pt69  1  0.43397090  0.49998406  0.69632264  1
  Pt  Pt70  1  0.49991356  0.43387334  0.30509501  1
  Pt  Pt71  1  0.43344045  0.49991506  0.30502788  1
  Pt  Pt72  1  0.56648831  0.30496711  0.49996830  1
  Pt  Pt73  1  0.30499193  0.56641293  0.49999581  1
  Pt  Pt74  1  0.50013134  0.30505888  0.56598712  1
  Pt  Pt75  1  0.30507937  0.50004996  0.56591306  1
  Pt  Pt76  1  0.50024440  0.30569011  0.43361294  1
  Pt  Pt77  1  0.30565150  0.50004372  0.43366272  1
  Pt  Pt78  1  0.43377726  0.30482159  0.49988861  1
  Pt  Pt79  1  0.30482822  0.43363836  0.49994183  1
  Pt  Pt80  1  0.36789518  0.36787331  0.63090793  1
  Pt  Pt81  1  0.63205411  0.36817504  0.63163222  1
  Pt  Pt82  1  0.36813335  0.63215549  0.63183094  1
  Pt  Pt83  1  0.36832613  0.36823260  0.36884601  1
  Pt  Pt84  1  0.63219711  0.63219936  0.63175776  1
  Pt  Pt85  1  0.63151883  0.36893055  0.36798126  1
  Pt  Pt86  1  0.36839507  0.63165522  0.36790364  1
  Pt  Pt87  1  0.63177456  0.63150763  0.36815396  1
  Pt  Pt88  1  0.56649198  0.69714206  0.36678041  1
  Pt  Pt89  1  0.69736645  0.56607964  0.36649288  1
  Pt  Pt90  1  0.43400495  0.69796074  0.36669491  1
  Pt  Pt91  1  0.69816128  0.43445300  0.36624503  1
  Pt  Pt92  1  0.69759405  0.36719175  0.56560361  1
  Pt  Pt93  1  0.36716390  0.69777736  0.56571466  1
  Pt  Pt94  1  0.69696612  0.36781711  0.43401795  1
  Pt  Pt95  1  0.36745153  0.69729368  0.43394179  1
  Pt  Pt96  1  0.56618697  0.36719830  0.69735705  1
  Pt  Pt97  1  0.36727513  0.56617280  0.69738107  1
  Pt  Pt98  1  0.56580037  0.36675553  0.30220448  1
  Pt  Pt99  1  0.36627688  0.56580453  0.30200238  1
  Pt  Pt100  1  0.63359211  0.69792699  0.56588030  1
  Pt  Pt101  1  0.69768186  0.63358405  0.56578507  1
  Pt  Pt102  1  0.56592432  0.30266561  0.36673962  1
  Pt  Pt103  1  0.30250677  0.56577390  0.36675194  1
  Pt  Pt104  1  0.69734828  0.63311180  0.43392286  1
  Pt  Pt105  1  0.63335825  0.69748887  0.43376253  1
  Pt  Pt106  1  0.43376448  0.36735258  0.69719872  1
  Pt  Pt107  1  0.36747528  0.43365691  0.69705983  1
  Pt  Pt108  1  0.69745217  0.56599692  0.63279737  1
  Pt  Pt109  1  0.56603954  0.69749467  0.63283039  1
  Pt  Pt110  1  0.36633263  0.43374244  0.30214714  1
  Pt  Pt111  1  0.43396902  0.36645991  0.30237481  1
  Pt  Pt112  1  0.56599292  0.63254342  0.69716969  1
  Pt  Pt113  1  0.63247514  0.56595838  0.69715495  1
  Pt  Pt114  1  0.43401601  0.30231023  0.36661532  1
  Pt  Pt115  1  0.30235163  0.43393106  0.36663344  1
  Pt  Pt116  1  0.63361576  0.56554446  0.30191012  1
  Pt  Pt117  1  0.56588722  0.63297550  0.30244685  1
  Pt  Pt118  1  0.30162243  0.36611658  0.56504822  1
  Pt  Pt119  1  0.36621725  0.30171735  0.56500937  1
  Pt  Pt120  1  0.43432228  0.69856927  0.63277230  1
  Pt  Pt121  1  0.69854598  0.43428483  0.63281982  1
  Pt  Pt122  1  0.36638692  0.30207392  0.43446805  1
  Pt  Pt123  1  0.30202370  0.36630167  0.43446485  1
  Pt  Pt124  1  0.63277993  0.43414881  0.69771327  1
  Pt  Pt125  1  0.43416242  0.63285264  0.69779813  1
  Pt  Pt126  1  0.63387966  0.43447001  0.30113205  1
  Pt  Pt127  1  0.43423873  0.63336255  0.30173741  1
  Pt  Pt128  1  0.63327844  0.30182609  0.56541340  1
  Pt  Pt129  1  0.30178260  0.63327393  0.56552630  1
  Pt  Pt130  1  0.63291817  0.30237214  0.43405857  1
  Pt  Pt131  1  0.30221360  0.63307124  0.43404171  1
  Pt  Pt132  1  0.56567181  0.30231780  0.63274973  1
  Pt  Pt133  1  0.30242184  0.56569643  0.63269595  1
  Pt  Pt134  1  0.43429819  0.30209611  0.63277978  1
  Pt  Pt135  1  0.30225216  0.43419950  0.63269230  1
  Pt  Pt136  1  0.49997376  0.49994226  0.75995651  1
  Pt  Pt137  1  0.49979582  0.24013919  0.49956269  1
  Pt  Pt138  1  0.24008256  0.49974331  0.49960089  1
  Pt  Pt139  1  0.76017891  0.50205826  0.49999497  1
  Pt  Pt140  1  0.50205959  0.75978474  0.49963201  1
  Pt  Pt141  1  0.49967847  0.50000961  0.24009612  1
  Pt  Pt142  1  0.56418246  0.56413572  0.23975782  1
  Pt  Pt143  1  0.43557447  0.56412276  0.24009859  1
  Pt  Pt144  1  0.56395953  0.43576682  0.23985566  1
  Pt  Pt145  1  0.69515916  0.69517898  0.49975444  1
  Pt  Pt146  1  0.43563333  0.43561654  0.24030331  1
  Pt  Pt147  1  0.56386237  0.23969859  0.56382340  1
  Pt  Pt148  1  0.23963990  0.56391446  0.56383653  1
  Pt  Pt149  1  0.56386763  0.24003560  0.43560884  1
  Pt  Pt150  1  0.24006403  0.56375762  0.43558514  1
  Pt  Pt151  1  0.50004945  0.69524011  0.69482289  1
  Pt  Pt152  1  0.69533981  0.50003731  0.69482159  1
  Pt  Pt153  1  0.69704524  0.50023418  0.30214646  1
  Pt  Pt154  1  0.50010131  0.69476984  0.30457377  1
  Pt  Pt155  1  0.43584628  0.23993118  0.56399255  1
  Pt  Pt156  1  0.23987081  0.43574903  0.56397913  1
  Pt  Pt157  1  0.43588051  0.24031031  0.43536272  1
  Pt  Pt158  1  0.24023880  0.43584933  0.43539434  1
  Pt  Pt159  1  0.69467021  0.30425566  0.49962412  1
  Pt  Pt160  1  0.30420178  0.69474082  0.49974039  1
  Pt  Pt161  1  0.75987368  0.56496642  0.56433968  1
  Pt  Pt162  1  0.56497272  0.75991824  0.56434043  1
  Pt  Pt163  1  0.75972716  0.56482635  0.43531768  1
  Pt  Pt164  1  0.56497383  0.75964441  0.43509367  1
  Pt  Pt165  1  0.49998149  0.30470187  0.69451474  1
  Pt  Pt166  1  0.30496124  0.49990540  0.69430903  1
  Pt  Pt167  1  0.49998190  0.30465694  0.30482846  1
  Pt  Pt168  1  0.30453227  0.49983121  0.30461253  1
  Au  Au169  1  0.76915257  0.43472592  0.56443493  1
  Au  Au170  1  0.43487518  0.76917220  0.56439905  1
  Au  Au171  1  0.76910407  0.43530164  0.43522334  1
  Au  Au172  1  0.43502270  0.76894267  0.43499290  1
  Au  Au173  1  0.56551179  0.56549343  0.76840815  1
  Au  Au174  1  0.29778858  0.29780696  0.49978042  1
  Au  Au175  1  0.43462448  0.56533574  0.76838898  1
  Au  Au176  1  0.56535710  0.43466059  0.76838549  1
  Au  Au177  1  0.43453447  0.43452071  0.76841331  1
  Au  Au178  1  0.49997583  0.36732388  0.76293583  1
  Au  Au179  1  0.36736978  0.49988425  0.76286570  1
  Au  Au180  1  0.49992861  0.23514445  0.63062401  1
  Au  Au181  1  0.23535532  0.49992180  0.63052645  1
  Au  Au182  1  0.36954647  0.23518184  0.49957905  1
  Au  Au183  1  0.23513834  0.36954085  0.49956344  1
  Au  Au184  1  0.50028645  0.63273394  0.76328349  1
  Au  Au185  1  0.63283129  0.50027345  0.76324846  1
  Au  Au186  1  0.63053236  0.23490011  0.49960339  1
  Au  Au187  1  0.23501480  0.63041605  0.49954275  1
  Au  Au188  1  0.23583130  0.49990964  0.36895923  1
  Au  Au189  1  0.50000872  0.23586920  0.36902157  1
  Au  Au190  1  0.76444317  0.50091277  0.63161460  1
  Au  Au191  1  0.50092300  0.76435582  0.63160240  1
  Au  Au192  1  0.76333081  0.36666567  0.49956927  1
  Au  Au193  1  0.36669120  0.76338823  0.49965682  1
  Au  Au194  1  0.49989064  0.36904300  0.23581277  1
  Au  Au195  1  0.36902085  0.49983024  0.23562242  1
  Au  Au196  1  0.63087787  0.76384171  0.49975522  1
  Au  Au197  1  0.76384238  0.63090381  0.49983984  1
  Au  Au198  1  0.50081371  0.76328265  0.36786369  1
  Au  Au199  1  0.76352420  0.50089670  0.36773038  1
  Au  Au200  1  0.50007087  0.63061620  0.23534897  1
  Au  Au201  1  0.63092841  0.50000694  0.23477881  1
  Au  Au202  1  0.70036130  0.70032435  0.36751263  1
  Au  Au203  1  0.70003225  0.36757477  0.69982147  1
  Au  Au204  1  0.36757574  0.70004577  0.69986661  1
  Au  Au205  1  0.69938953  0.36711983  0.29973060  1
  Au  Au206  1  0.36731349  0.69945859  0.29958427  1
  Au  Au207  1  0.69910807  0.29961396  0.36765854  1
  Au  Au208  1  0.29947576  0.69937440  0.36755503  1
  Au  Au209  1  0.70042488  0.70044648  0.63243319  1
  Au  Au210  1  0.70044679  0.63248629  0.69954029  1
  Au  Au211  1  0.63250864  0.70044566  0.69956955  1
  Au  Au212  1  0.63303970  0.69984523  0.30005299  1
  Au  Au213  1  0.69983078  0.63317122  0.30009018  1
  Au  Au214  1  0.29954726  0.36758533  0.69910670  1
  Au  Au215  1  0.36741237  0.29977954  0.69891256  1
  Au  Au216  1  0.36683543  0.30012947  0.30044168  1
  Au  Au217  1  0.30011861  0.36682761  0.30037716  1
  Au  Au218  1  0.29964447  0.29966457  0.36775242  1
  Au  Au219  1  0.69936437  0.29932070  0.63164271  1
  Au  Au220  1  0.29943228  0.69932071  0.63179230  1
  Au  Au221  1  0.63199173  0.29923361  0.69946282  1
  Au  Au222  1  0.29919058  0.63181115  0.69972657  1
  Au  Au223  1  0.63201171  0.29990248  0.29993516  1
  Au  Au224  1  0.29968098  0.63220661  0.29989874  1
  Au  Au225  1  0.29972984  0.29983321  0.63175629  1
  Au  Au226  1  0.36859791  0.36862658  0.76188730  1
  Au  Au227  1  0.36971252  0.23677873  0.62944367  1
  Au  Au228  1  0.23672618  0.36979498  0.62955670  1
  Au  Au229  1  0.63096167  0.36862225  0.76215206  1
  Au  Au230  1  0.36861155  0.63103898  0.76217265  1
  Au  Au231  1  0.62944826  0.23642384  0.62967172  1
  Au  Au232  1  0.23647590  0.62948062  0.63000530  1
  Au  Au233  1  0.36942202  0.23689006  0.37036192  1
  Au  Au234  1  0.23687737  0.36942731  0.37036315  1
  Au  Au235  1  0.63126729  0.63123906  0.76195415  1
  Au  Au236  1  0.76228377  0.36880662  0.63058218  1
  Au  Au237  1  0.36886291  0.76235990  0.63061761  1
  Au  Au238  1  0.62980130  0.23667031  0.36996896  1
  Au  Au239  1  0.23666525  0.62980695  0.36993301  1
  Au  Au240  1  0.36999217  0.36963215  0.23677226  1
  Au  Au241  1  0.63028067  0.76343175  0.62999828  1
  Au  Au242  1  0.76337222  0.63033709  0.62993071  1
  Au  Au243  1  0.76176692  0.36892820  0.36945953  1
  Au  Au244  1  0.36863923  0.76207178  0.36916763  1
  Au  Au245  1  0.62979799  0.36978888  0.23665872  1
  Au  Au246  1  0.36956395  0.62986811  0.23656002  1
  Au  Au247  1  0.76307454  0.63024878  0.36984365  1
  Au  Au248  1  0.63071823  0.76335897  0.36966351  1
  Au  Au249  1  0.62999390  0.62988778  0.23690580  1
