# generated using pymatgen
data_Pt56Au27
_symmetry_space_group_name_H-M   'P 1'
_cell_length_a   30.00000000
_cell_length_b   30.00000000
_cell_length_c   30.00000000
_cell_angle_alpha   90.00000000
_cell_angle_beta   90.00000000
_cell_angle_gamma   90.00000000
_symmetry_Int_Tables_number   1
_chemical_formula_structural   Pt56Au27
_chemical_formula_sum   'Pt168 Au81'
_cell_volume   27000.00000000
_cell_formula_units_Z   3
loop_
 _symmetry_equiv_pos_site_id
 _symmetry_equiv_pos_as_xyz
  1  'x, y, z'
loop_
 _atom_site_type_symbol
 _atom_site_label
 _atom_site_symmetry_multiplicity
 _atom_site_fract_x
 _atom_site_fract_y
 _atom_site_fract_z
 _atom_site_occupancy
  Pt  Pt0  1  0.50090339  0.50090339  0.50045752  1
  Pt  Pt1  1  0.56616189  0.56616189  0.50042773  1
  Pt  Pt2  1  0.50005358  0.56604279  0.56623237  1
  Pt  Pt3  1  0.56604279  0.50005358  0.56623237  1
  Pt  Pt4  1  0.56612065  0.50013777  0.43439276  1
  Pt  Pt5  1  0.50013777  0.56612065  0.43439276  1
  Pt  Pt6  1  0.56596364  0.43454794  0.50032371  1
  Pt  Pt7  1  0.43454794  0.56596364  0.50032371  1
  Pt  Pt8  1  0.50024263  0.43468971  0.56612627  1
  Pt  Pt9  1  0.43468971  0.50024263  0.56612627  1
  Pt  Pt10  1  0.50030616  0.43467965  0.43460502  1
  Pt  Pt11  1  0.43467965  0.50030616  0.43460502  1
  Pt  Pt12  1  0.43506965  0.43506965  0.50035535  1
  Pt  Pt13  1  0.50011081  0.50011081  0.63125246  1
  Pt  Pt14  1  0.50029129  0.37029839  0.50018365  1
  Pt  Pt15  1  0.37029839  0.50029129  0.50018365  1
  Pt  Pt16  1  0.49936865  0.63051243  0.50014310  1
  Pt  Pt17  1  0.63051243  0.49936865  0.50014310  1
  Pt  Pt18  1  0.50010896  0.50010896  0.37019797  1
  Pt  Pt19  1  0.56592618  0.56592618  0.36906393  1
  Pt  Pt20  1  0.43416247  0.56567012  0.36858538  1
  Pt  Pt21  1  0.56567012  0.43416247  0.36858538  1
  Pt  Pt22  1  0.56603883  0.36904698  0.56565315  1
  Pt  Pt23  1  0.36904698  0.56603883  0.56565315  1
  Pt  Pt24  1  0.56606971  0.36936366  0.43442782  1
  Pt  Pt25  1  0.36936366  0.56606971  0.43442782  1
  Pt  Pt26  1  0.43417697  0.43417697  0.36923447  1
  Pt  Pt27  1  0.43393553  0.36896400  0.56504800  1
  Pt  Pt28  1  0.36896400  0.43393553  0.56504800  1
  Pt  Pt29  1  0.43401145  0.36935365  0.43496095  1
  Pt  Pt30  1  0.36935365  0.43401145  0.43496095  1
  Pt  Pt31  1  0.63127672  0.56572343  0.56601302  1
  Pt  Pt32  1  0.56572343  0.63127672  0.56601302  1
  Pt  Pt33  1  0.63092488  0.56575571  0.43411200  1
  Pt  Pt34  1  0.56575571  0.63092488  0.43411200  1
  Pt  Pt35  1  0.56611813  0.56611813  0.63066214  1
  Pt  Pt36  1  0.63149973  0.43408603  0.56617365  1
  Pt  Pt37  1  0.43408603  0.63149973  0.56617365  1
  Pt  Pt38  1  0.63103978  0.43391234  0.43380789  1
  Pt  Pt39  1  0.43391234  0.63103978  0.43380789  1
  Pt  Pt40  1  0.43392234  0.56605947  0.63116469  1
  Pt  Pt41  1  0.56605947  0.43392234  0.63116469  1
  Pt  Pt42  1  0.43390075  0.43390075  0.63041503  1
  Pt  Pt43  1  0.49991306  0.36937065  0.63132412  1
  Pt  Pt44  1  0.36937065  0.49991306  0.63132412  1
  Pt  Pt45  1  0.36709631  0.36709631  0.49993329  1
  Pt  Pt46  1  0.63117283  0.49969232  0.63118644  1
  Pt  Pt47  1  0.49969232  0.63117283  0.63118644  1
  Pt  Pt48  1  0.63175806  0.36932773  0.50011798  1
  Pt  Pt49  1  0.36932773  0.63175806  0.50011798  1
  Pt  Pt50  1  0.49983072  0.36904359  0.36874892  1
  Pt  Pt51  1  0.36904359  0.49983072  0.36874892  1
  Pt  Pt52  1  0.63123369  0.63123369  0.50010647  1
  Pt  Pt53  1  0.49975917  0.63133744  0.36890862  1
  Pt  Pt54  1  0.63133744  0.49975917  0.36890862  1
  Pt  Pt55  1  0.56599874  0.69426863  0.50002012  1
  Pt  Pt56  1  0.69426863  0.56599874  0.50002012  1
  Pt  Pt57  1  0.49869758  0.69647346  0.56596024  1
  Pt  Pt58  1  0.69647346  0.49869758  0.56596024  1
  Pt  Pt59  1  0.49862961  0.69576538  0.43390230  1
  Pt  Pt60  1  0.69576538  0.49862961  0.43390230  1
  Pt  Pt61  1  0.43372866  0.69725415  0.50003006  1
  Pt  Pt62  1  0.69725415  0.43372866  0.50003006  1
  Pt  Pt63  1  0.56599045  0.50002942  0.69654555  1
  Pt  Pt64  1  0.50002942  0.56599045  0.69654555  1
  Pt  Pt65  1  0.56637705  0.50017675  0.30492776  1
  Pt  Pt66  1  0.50017675  0.56637705  0.30492776  1
  Pt  Pt67  1  0.49998751  0.43398772  0.69630172  1
  Pt  Pt68  1  0.43398772  0.49998751  0.69630172  1
  Pt  Pt69  1  0.49992847  0.43370036  0.30506580  1
  Pt  Pt70  1  0.43370036  0.49992847  0.30506580  1
  Pt  Pt71  1  0.56637515  0.30495063  0.50003726  1
  Pt  Pt72  1  0.30495063  0.56637515  0.50003726  1
  Pt  Pt73  1  0.50004568  0.30505700  0.56610381  1
  Pt  Pt74  1  0.30505700  0.50004568  0.56610381  1
  Pt  Pt75  1  0.50006054  0.30560964  0.43370945  1
  Pt  Pt76  1  0.30560964  0.50006054  0.43370945  1
  Pt  Pt77  1  0.43377665  0.30485810  0.49996594  1
  Pt  Pt78  1  0.30485810  0.43377665  0.49996594  1
  Pt  Pt79  1  0.36797934  0.36797934  0.63084055  1
  Pt  Pt80  1  0.63201887  0.36821146  0.63169384  1
  Pt  Pt81  1  0.36821146  0.63201887  0.63169384  1
  Pt  Pt82  1  0.36825567  0.36825567  0.36879701  1
  Pt  Pt83  1  0.63219619  0.63219619  0.63186451  1
  Pt  Pt84  1  0.63162962  0.36832792  0.36790970  1
  Pt  Pt85  1  0.36832792  0.63162962  0.36790970  1
  Pt  Pt86  1  0.63195955  0.63195955  0.36797257  1
  Pt  Pt87  1  0.56636015  0.69718517  0.36682766  1
  Pt  Pt88  1  0.69718517  0.56636015  0.36682766  1
  Pt  Pt89  1  0.43396202  0.69782479  0.36676232  1
  Pt  Pt90  1  0.69782479  0.43396202  0.36676232  1
  Pt  Pt91  1  0.69767708  0.36719752  0.56577347  1
  Pt  Pt92  1  0.36719752  0.69767708  0.56577347  1
  Pt  Pt93  1  0.69724318  0.36741979  0.43399051  1
  Pt  Pt94  1  0.36741979  0.69724318  0.43399051  1
  Pt  Pt95  1  0.56608212  0.36718046  0.69737402  1
  Pt  Pt96  1  0.36718046  0.56608212  0.69737402  1
  Pt  Pt97  1  0.56580622  0.36633516  0.30204158  1
  Pt  Pt98  1  0.36633516  0.56580622  0.30204158  1
  Pt  Pt99  1  0.63365007  0.69784786  0.56594366  1
  Pt  Pt100  1  0.69784786  0.63365007  0.56594366  1
  Pt  Pt101  1  0.56580754  0.30253195  0.36674999  1
  Pt  Pt102  1  0.30253195  0.56580754  0.36674999  1
  Pt  Pt103  1  0.69760850  0.63348901  0.43382580  1
  Pt  Pt104  1  0.63348901  0.69760850  0.43382580  1
  Pt  Pt105  1  0.43373269  0.36744288  0.69702490  1
  Pt  Pt106  1  0.36744288  0.43373269  0.69702490  1
  Pt  Pt107  1  0.69743416  0.56602773  0.63284208  1
  Pt  Pt108  1  0.56602773  0.69743416  0.63284208  1
  Pt  Pt109  1  0.36641446  0.43384345  0.30218390  1
  Pt  Pt110  1  0.43384345  0.36641446  0.30218390  1
  Pt  Pt111  1  0.56596621  0.63250011  0.69716569  1
  Pt  Pt112  1  0.63250011  0.56596621  0.69716569  1
  Pt  Pt113  1  0.43397225  0.30243287  0.36662983  1
  Pt  Pt114  1  0.30243287  0.43397225  0.36662983  1
  Pt  Pt115  1  0.63331427  0.56583632  0.30222707  1
  Pt  Pt116  1  0.56583632  0.63331427  0.30222707  1
  Pt  Pt117  1  0.30182291  0.36630242  0.56509851  1
  Pt  Pt118  1  0.36630242  0.30182291  0.56509851  1
  Pt  Pt119  1  0.43434265  0.69847513  0.63276627  1
  Pt  Pt120  1  0.69847513  0.43434265  0.63276627  1
  Pt  Pt121  1  0.36640954  0.30208460  0.43447945  1
  Pt  Pt122  1  0.30208460  0.36640954  0.43447945  1
  Pt  Pt123  1  0.63277161  0.43414058  0.69767389  1
  Pt  Pt124  1  0.43414058  0.63277161  0.69767389  1
  Pt  Pt125  1  0.63344344  0.43413051  0.30157616  1
  Pt  Pt126  1  0.43413051  0.63344344  0.30157616  1
  Pt  Pt127  1  0.63317324  0.30198825  0.56554910  1
  Pt  Pt128  1  0.30198825  0.63317324  0.56554910  1
  Pt  Pt129  1  0.63302756  0.30214721  0.43416315  1
  Pt  Pt130  1  0.30214721  0.63302756  0.43416315  1
  Pt  Pt131  1  0.56559145  0.30230721  0.63280225  1
  Pt  Pt132  1  0.30230721  0.56559145  0.63280225  1
  Pt  Pt133  1  0.43431074  0.30212843  0.63282853  1
  Pt  Pt134  1  0.30212843  0.43431074  0.63282853  1
  Pt  Pt135  1  0.49993647  0.49993647  0.75990960  1
  Pt  Pt136  1  0.49974626  0.24010991  0.49959102  1
  Pt  Pt137  1  0.24010991  0.49974626  0.49959102  1
  Pt  Pt138  1  0.75980459  0.50201639  0.49973336  1
  Pt  Pt139  1  0.50201639  0.75980459  0.49973336  1
  Pt  Pt140  1  0.50000582  0.50000582  0.24029667  1
  Pt  Pt141  1  0.56429363  0.56429363  0.23987597  1
  Pt  Pt142  1  0.43555737  0.56406555  0.24005678  1
  Pt  Pt143  1  0.56406555  0.43555737  0.24005678  1
  Pt  Pt144  1  0.69528592  0.69528592  0.49987370  1
  Pt  Pt145  1  0.43566607  0.43566607  0.24027996  1
  Pt  Pt146  1  0.56377821  0.23968444  0.56385502  1
  Pt  Pt147  1  0.23968444  0.56377821  0.56385502  1
  Pt  Pt148  1  0.56390336  0.24004375  0.43565981  1
  Pt  Pt149  1  0.24004375  0.56390336  0.43565981  1
  Pt  Pt150  1  0.50005905  0.69524758  0.69479033  1
  Pt  Pt151  1  0.69524758  0.50005905  0.69479033  1
  Pt  Pt152  1  0.69490490  0.50000592  0.30450760  1
  Pt  Pt153  1  0.50000592  0.69490490  0.30450760  1
  Pt  Pt154  1  0.43588011  0.23991600  0.56402692  1
  Pt  Pt155  1  0.23991600  0.43588011  0.56402692  1
  Pt  Pt156  1  0.43582739  0.24022850  0.43540273  1
  Pt  Pt157  1  0.24022850  0.43582739  0.43540273  1
  Pt  Pt158  1  0.69474120  0.30415585  0.49979761  1
  Pt  Pt159  1  0.30415585  0.69474120  0.49979761  1
  Pt  Pt160  1  0.75981595  0.56501403  0.56442187  1
  Pt  Pt161  1  0.56501403  0.75981595  0.56442187  1
  Pt  Pt162  1  0.75954936  0.56497083  0.43513389  1
  Pt  Pt163  1  0.56497083  0.75954936  0.43513389  1
  Pt  Pt164  1  0.49993103  0.30465027  0.69449509  1
  Pt  Pt165  1  0.30465027  0.49993103  0.69449509  1
  Pt  Pt166  1  0.49990190  0.30452958  0.30473804  1
  Pt  Pt167  1  0.30452958  0.49990190  0.30473804  1
  Au  Au168  1  0.76906746  0.43490787  0.56451979  1
  Au  Au169  1  0.43490787  0.76906746  0.56451979  1
  Au  Au170  1  0.76890973  0.43491947  0.43513476  1
  Au  Au171  1  0.43491947  0.76890973  0.43513476  1
  Au  Au172  1  0.56546106  0.56546106  0.76839610  1
  Au  Au173  1  0.29795909  0.29795909  0.49976816  1
  Au  Au174  1  0.43458440  0.56527760  0.76832888  1
  Au  Au175  1  0.56527760  0.43458440  0.76832888  1
  Au  Au176  1  0.43453621  0.43453621  0.76842569  1
  Au  Au177  1  0.49973395  0.36727214  0.76287851  1
  Au  Au178  1  0.36727214  0.49973395  0.76287851  1
  Au  Au179  1  0.49991686  0.23502007  0.63070788  1
  Au  Au180  1  0.23502007  0.49991686  0.63070788  1
  Au  Au181  1  0.36952524  0.23530792  0.49965912  1
  Au  Au182  1  0.23530792  0.36952524  0.49965912  1
  Au  Au183  1  0.50024369  0.63274772  0.76318490  1
  Au  Au184  1  0.63274772  0.50024369  0.76318490  1
  Au  Au185  1  0.63062263  0.23492821  0.49982009  1
  Au  Au186  1  0.23492821  0.63062263  0.49982009  1
  Au  Au187  1  0.23579499  0.49993009  0.36901077  1
  Au  Au188  1  0.49993009  0.23579499  0.36901077  1
  Au  Au189  1  0.76441925  0.50097228  0.63165084  1
  Au  Au190  1  0.50097228  0.76441925  0.63165084  1
  Au  Au191  1  0.76335950  0.36662186  0.49971422  1
  Au  Au192  1  0.36662186  0.76335950  0.49971422  1
  Au  Au193  1  0.49988882  0.36901847  0.23573887  1
  Au  Au194  1  0.36901847  0.49988882  0.23573887  1
  Au  Au195  1  0.63086610  0.76385737  0.49981865  1
  Au  Au196  1  0.76385737  0.63086610  0.49981865  1
  Au  Au197  1  0.50070198  0.76330625  0.36801034  1
  Au  Au198  1  0.76330625  0.50070198  0.36801034  1
  Au  Au199  1  0.49996963  0.63063534  0.23517019  1
  Au  Au200  1  0.63063534  0.49996963  0.23517019  1
  Au  Au201  1  0.70044392  0.70044392  0.36734673  1
  Au  Au202  1  0.70002450  0.36770707  0.69987234  1
  Au  Au203  1  0.36770707  0.70002450  0.69987234  1
  Au  Au204  1  0.69950991  0.36737421  0.29955157  1
  Au  Au205  1  0.36737421  0.69950991  0.29955157  1
  Au  Au206  1  0.69929851  0.29952176  0.36761954  1
  Au  Au207  1  0.29952176  0.69929851  0.36761954  1
  Au  Au208  1  0.70044714  0.70044714  0.63247766  1
  Au  Au209  1  0.70044959  0.63253078  0.69959926  1
  Au  Au210  1  0.63253078  0.70044959  0.69959926  1
  Au  Au211  1  0.63287280  0.70000318  0.29985137  1
  Au  Au212  1  0.70000318  0.63287280  0.29985137  1
  Au  Au213  1  0.29969438  0.36746814  0.69895425  1
  Au  Au214  1  0.36746814  0.29969438  0.69895425  1
  Au  Au215  1  0.36685870  0.30013051  0.30039583  1
  Au  Au216  1  0.30013051  0.36685870  0.30039583  1
  Au  Au217  1  0.29974451  0.29974451  0.36776434  1
  Au  Au218  1  0.69938481  0.29939027  0.63179385  1
  Au  Au219  1  0.29939027  0.69938481  0.63179385  1
  Au  Au220  1  0.63197551  0.29929108  0.69941765  1
  Au  Au221  1  0.29929108  0.63197551  0.69941765  1
  Au  Au222  1  0.63227065  0.29973686  0.29987734  1
  Au  Au223  1  0.29973686  0.63227065  0.29987734  1
  Au  Au224  1  0.29981227  0.29981227  0.63171058  1
  Au  Au225  1  0.36865975  0.36865975  0.76190678  1
  Au  Au226  1  0.36973632  0.23671290  0.62938590  1
  Au  Au227  1  0.23671290  0.36973632  0.62938590  1
  Au  Au228  1  0.63095720  0.36864126  0.76218537  1
  Au  Au229  1  0.36864126  0.63095720  0.76218537  1
  Au  Au230  1  0.62944576  0.23639915  0.62956044  1
  Au  Au231  1  0.23639915  0.62944576  0.62956044  1
  Au  Au232  1  0.36946965  0.23691302  0.37038468  1
  Au  Au233  1  0.23691302  0.36946965  0.37038468  1
  Au  Au234  1  0.63121662  0.63121662  0.76199502  1
  Au  Au235  1  0.76237666  0.36887850  0.63067949  1
  Au  Au236  1  0.36887850  0.76237666  0.63067949  1
  Au  Au237  1  0.62971601  0.23667344  0.36982158  1
  Au  Au238  1  0.23667344  0.62971601  0.36982158  1
  Au  Au239  1  0.36977765  0.36977765  0.23670681  1
  Au  Au240  1  0.63034982  0.76339152  0.63009754  1
  Au  Au241  1  0.76339152  0.63034982  0.63009754  1
  Au  Au242  1  0.76207975  0.36868897  0.36913099  1
  Au  Au243  1  0.36868897  0.76207975  0.36913099  1
  Au  Au244  1  0.62985066  0.36952558  0.23650448  1
  Au  Au245  1  0.36952558  0.62985066  0.23650448  1
  Au  Au246  1  0.76324750  0.63064456  0.36952387  1
  Au  Au247  1  0.63064456  0.76324750  0.36952387  1
  Au  Au248  1  0.63008247  0.63008247  0.23672902  1
