# generated using pymatgen
data_Ni43HPt278
_symmetry_space_group_name_H-M   'P 1'
_cell_length_a   30.00000000
_cell_length_b   30.00000000
_cell_length_c   30.00000000
_cell_angle_alpha   90.00000000
_cell_angle_beta   90.00000000
_cell_angle_gamma   90.00000000
_symmetry_Int_Tables_number   1
_chemical_formula_structural   Ni43HPt278
_chemical_formula_sum   'Ni43 H1 Pt278'
_cell_volume   27000.00000000
_cell_formula_units_Z   1
loop_
 _symmetry_equiv_pos_site_id
 _symmetry_equiv_pos_as_xyz
  1  'x, y, z'
loop_
 _atom_site_type_symbol
 _atom_site_label
 _atom_site_symmetry_multiplicity
 _atom_site_fract_x
 _atom_site_fract_y
 _atom_site_fract_z
 _atom_site_occupancy
  Ni  Ni0  1  0.50004961  0.50001688  0.50000357  1
  Ni  Ni1  1  0.44736516  0.35117303  0.40879055  1
  Ni  Ni2  1  0.55253970  0.64895778  0.59114379  1
  Ni  Ni3  1  0.44736975  0.35117950  0.59120736  1
  Ni  Ni4  1  0.55253771  0.64894927  0.40886651  1
  Ni  Ni5  1  0.39459135  0.64877672  0.50000509  1
  Ni  Ni6  1  0.60540164  0.35123038  0.50000175  1
  Ni  Ni7  1  0.65776006  0.50002937  0.59121077  1
  Ni  Ni8  1  0.34213972  0.49995381  0.40884807  1
  Ni  Ni9  1  0.34213904  0.49995562  0.59115146  1
  Ni  Ni10  1  0.65775853  0.50002988  0.40879298  1
  Ni  Ni11  1  0.49990974  0.50007713  0.31768993  1
  Ni  Ni12  1  0.49991595  0.50008322  0.68230956  1
  Ni  Ni13  1  0.29112828  0.35229105  0.50000583  1
  Ni  Ni14  1  0.70888009  0.64745110  0.50000197  1
  Ni  Ni15  1  0.39558291  0.64763093  0.68097784  1
  Ni  Ni16  1  0.60424122  0.35248451  0.31891677  1
  Ni  Ni17  1  0.60423937  0.35248898  0.68108174  1
  Ni  Ni18  1  0.39557991  0.64763822  0.31902455  1
  Ni  Ni19  1  0.40121466  0.20401474  0.49999912  1
  Ni  Ni20  1  0.59866402  0.79613110  0.49999920  1
  Ni  Ni21  1  0.45077711  0.79594321  0.58540212  1
  Ni  Ni22  1  0.54904228  0.20406095  0.41462798  1
  Ni  Ni23  1  0.54904308  0.20405338  0.58537325  1
  Ni  Ni24  1  0.45077743  0.79595627  0.41459395  1
  Ni  Ni25  1  0.70522298  0.64514734  0.68471130  1
  Ni  Ni26  1  0.29470582  0.35486726  0.31531072  1
  Ni  Ni27  1  0.29470405  0.35486655  0.68468558  1
  Ni  Ni28  1  0.70523254  0.64515595  0.31527560  1
  Ni  Ni29  1  0.81166150  0.49468799  0.49999912  1
  Ni  Ni30  1  0.18814895  0.50567570  0.49999961  1
  Ni  Ni31  1  0.76229489  0.35532203  0.41494133  1
  Ni  Ni32  1  0.23736632  0.64515366  0.58540438  1
  Ni  Ni33  1  0.76229738  0.35532655  0.58506714  1
  Ni  Ni34  1  0.23735677  0.64515872  0.41459015  1
  Ni  Ni35  1  0.44251168  0.35487548  0.22981610  1
  Ni  Ni36  1  0.55735740  0.64513109  0.77012576  1
  Ni  Ni37  1  0.44250794  0.35486870  0.77019324  1
  Ni  Ni38  1  0.55736603  0.64514101  0.22985860  1
  Ni  Ni39  1  0.65600213  0.50571583  0.77017344  1
  Ni  Ni40  1  0.34398949  0.49432304  0.22978737  1
  Ni  Ni41  1  0.65600053  0.50571291  0.22981562  1
  Ni  Ni42  1  0.34398867  0.49432184  0.77019989  1
  H  H43  1  0.82412950  0.32658350  0.50005050  1
  Pt  Pt44  1  0.52639355  0.57514335  0.54603655  1
  Pt  Pt45  1  0.52638877  0.57513781  0.45397025  1
  Pt  Pt46  1  0.44686339  0.57495958  0.50000299  1
  Pt  Pt47  1  0.57966984  0.50015034  0.54593815  1
  Pt  Pt48  1  0.42038560  0.49996106  0.54595868  1
  Pt  Pt49  1  0.50003592  0.49997844  0.59196912  1
  Pt  Pt50  1  0.50003044  0.49997224  0.40803399  1
  Pt  Pt51  1  0.57966684  0.50014700  0.45407089  1
  Pt  Pt52  1  0.42038449  0.49995699  0.45403981  1
  Pt  Pt53  1  0.55328092  0.42499227  0.50000365  1
  Pt  Pt54  1  0.47356216  0.42493256  0.54598856  1
  Pt  Pt55  1  0.47355795  0.42492802  0.45400821  1
  Pt  Pt56  1  0.44654241  0.57539317  0.40752494  1
  Pt  Pt57  1  0.44654497  0.57539794  0.59247538  1
  Pt  Pt58  1  0.60621271  0.57599718  0.50000601  1
  Pt  Pt59  1  0.39340002  0.42452981  0.49999992  1
  Pt  Pt60  1  0.55352203  0.42465758  0.40769628  1
  Pt  Pt61  1  0.55352364  0.42466430  0.59230661  1
  Pt  Pt62  1  0.60606382  0.57521805  0.59115979  1
  Pt  Pt63  1  0.47300939  0.64947811  0.45362936  1
  Pt  Pt64  1  0.52586815  0.57513433  0.63755073  1
  Pt  Pt65  1  0.44653543  0.35045482  0.49999960  1
  Pt  Pt66  1  0.55318012  0.64976621  0.50000083  1
  Pt  Pt67  1  0.47300970  0.64948206  0.54637504  1
  Pt  Pt68  1  0.60605735  0.57521329  0.40884948  1
  Pt  Pt69  1  0.52677996  0.35059963  0.45363765  1
  Pt  Pt70  1  0.42050446  0.50055822  0.63755371  1
  Pt  Pt71  1  0.36791400  0.57502465  0.54635718  1
  Pt  Pt72  1  0.57939748  0.49952376  0.63751926  1
  Pt  Pt73  1  0.63264591  0.42501869  0.54609224  1
  Pt  Pt74  1  0.52586210  0.57512880  0.36245298  1
  Pt  Pt75  1  0.34120199  0.49936066  0.50000006  1
  Pt  Pt76  1  0.65850374  0.50064280  0.50000592  1
  Pt  Pt77  1  0.39386175  0.42488385  0.59121158  1
  Pt  Pt78  1  0.36791365  0.57502175  0.45364616  1
  Pt  Pt79  1  0.63264162  0.42501862  0.45391818  1
  Pt  Pt80  1  0.47405192  0.42497739  0.63754471  1
  Pt  Pt81  1  0.52678131  0.35059997  0.54636405  1
  Pt  Pt82  1  0.42049882  0.50055452  0.36244404  1
  Pt  Pt83  1  0.57938909  0.49951687  0.36248935  1
  Pt  Pt84  1  0.47404965  0.42497367  0.36245661  1
  Pt  Pt85  1  0.39385800  0.42488042  0.40878456  1
  Pt  Pt86  1  0.63624697  0.65162262  0.54506923  1
  Pt  Pt87  1  0.47091008  0.65154235  0.64052215  1
  Pt  Pt88  1  0.68794186  0.57751035  0.54504161  1
  Pt  Pt89  1  0.68793868  0.57750920  0.45496128  1
  Pt  Pt90  1  0.44492396  0.57782090  0.68557027  1
  Pt  Pt91  1  0.36383969  0.34847985  0.54510665  1
  Pt  Pt92  1  0.52886555  0.34858556  0.64055596  1
  Pt  Pt93  1  0.63624856  0.65162226  0.45493532  1
  Pt  Pt94  1  0.55489998  0.42230994  0.68547208  1
  Pt  Pt95  1  0.39278607  0.65152613  0.59544419  1
  Pt  Pt96  1  0.60693373  0.34864916  0.40439810  1
  Pt  Pt97  1  0.60693259  0.34864935  0.59560124  1
  Pt  Pt98  1  0.39278874  0.65151963  0.40456500  1
  Pt  Pt99  1  0.36678407  0.57782709  0.64049640  1
  Pt  Pt100  1  0.63312293  0.42227036  0.64051473  1
  Pt  Pt101  1  0.47091521  0.65154299  0.35948409  1
  Pt  Pt102  1  0.36383163  0.34847845  0.45489166  1
  Pt  Pt103  1  0.31182045  0.42213665  0.54508681  1
  Pt  Pt104  1  0.36677823  0.57781831  0.35949745  1
  Pt  Pt105  1  0.63311816  0.42226555  0.35948398  1
  Pt  Pt106  1  0.31181732  0.42213337  0.45491000  1
  Pt  Pt107  1  0.52886514  0.34858569  0.35944032  1
  Pt  Pt108  1  0.44492054  0.57781832  0.31442588  1
  Pt  Pt109  1  0.55489298  0.42230586  0.31452536  1
  Pt  Pt110  1  0.50007703  0.72575242  0.50000428  1
  Pt  Pt111  1  0.28708906  0.57519058  0.50000205  1
  Pt  Pt112  1  0.60641290  0.57533888  0.31563517  1
  Pt  Pt113  1  0.60641130  0.57533875  0.68436193  1
  Pt  Pt114  1  0.49994800  0.27426527  0.49999855  1
  Pt  Pt115  1  0.39340472  0.42475801  0.31552592  1
  Pt  Pt116  1  0.39340621  0.42476154  0.68447006  1
  Pt  Pt117  1  0.71464382  0.42270591  0.50000373  1
  Pt  Pt118  1  0.57942597  0.72164033  0.54622638  1
  Pt  Pt119  1  0.50034018  0.72152870  0.59178755  1
  Pt  Pt120  1  0.57942987  0.72164044  0.45377838  1
  Pt  Pt121  1  0.42028439  0.72145558  0.54558416  1
  Pt  Pt122  1  0.42028540  0.72145719  0.45442163  1
  Pt  Pt123  1  0.50034178  0.72152884  0.40822201  1
  Pt  Pt124  1  0.68390377  0.57359295  0.63503002  1
  Pt  Pt125  1  0.31766188  0.64892969  0.54561525  1
  Pt  Pt126  1  0.63062019  0.64907494  0.36494982  1
  Pt  Pt127  1  0.63062119  0.64907489  0.63505058  1
  Pt  Pt128  1  0.68390703  0.57359082  0.36497276  1
  Pt  Pt129  1  0.52496864  0.57357643  0.72692469  1
  Pt  Pt130  1  0.70897726  0.42650914  0.59195460  1
  Pt  Pt131  1  0.68250148  0.35105119  0.54548610  1
  Pt  Pt132  1  0.49951218  0.27857035  0.59180703  1
  Pt  Pt133  1  0.55163129  0.64902800  0.68068400  1
  Pt  Pt134  1  0.44833318  0.35106151  0.31926083  1
  Pt  Pt135  1  0.44833170  0.35105998  0.68073650  1
  Pt  Pt136  1  0.55163548  0.64902765  0.31931734  1
  Pt  Pt137  1  0.29099531  0.57349559  0.59185434  1
  Pt  Pt138  1  0.36935353  0.35103902  0.36490096  1
  Pt  Pt139  1  0.73495479  0.50025374  0.54598570  1
  Pt  Pt140  1  0.26469737  0.49902144  0.54626551  1
  Pt  Pt141  1  0.36935425  0.35103886  0.63510043  1
  Pt  Pt142  1  0.57753607  0.49913666  0.72690533  1
  Pt  Pt143  1  0.31765848  0.64892923  0.45439216  1
  Pt  Pt144  1  0.42231086  0.50090953  0.72689097  1
  Pt  Pt145  1  0.42056724  0.27846147  0.54620079  1
  Pt  Pt146  1  0.57957108  0.27860670  0.54566246  1
  Pt  Pt147  1  0.73495908  0.50025466  0.45401833  1
  Pt  Pt148  1  0.26469952  0.49902171  0.45373263  1
  Pt  Pt149  1  0.42056456  0.27846152  0.45380191  1
  Pt  Pt150  1  0.57957077  0.27860750  0.45433909  1
  Pt  Pt151  1  0.47493850  0.42649462  0.72694016  1
  Pt  Pt152  1  0.65757363  0.49914715  0.68081649  1
  Pt  Pt153  1  0.34224948  0.50095646  0.31927488  1
  Pt  Pt154  1  0.34224605  0.50095941  0.68072261  1
  Pt  Pt155  1  0.65757463  0.49914481  0.31918237  1
  Pt  Pt156  1  0.31596879  0.42647043  0.63506210  1
  Pt  Pt157  1  0.70897428  0.42651138  0.40805126  1
  Pt  Pt158  1  0.52496730  0.57357533  0.27306820  1
  Pt  Pt159  1  0.49950999  0.27857019  0.40819034  1
  Pt  Pt160  1  0.68250728  0.35104998  0.45452377  1
  Pt  Pt161  1  0.29099358  0.57349796  0.40814989  1
  Pt  Pt162  1  0.31597324  0.42647225  0.36493975  1
  Pt  Pt163  1  0.57753250  0.49913390  0.27309252  1
  Pt  Pt164  1  0.42230703  0.50090677  0.27311106  1
  Pt  Pt165  1  0.47493501  0.42649339  0.27305904  1
  Pt  Pt166  1  0.65767719  0.73851016  0.50000618  1
  Pt  Pt167  1  0.58024777  0.72683612  0.63889062  1
  Pt  Pt168  1  0.58025334  0.72683739  0.36111763  1
  Pt  Pt169  1  0.42118998  0.73829371  0.63646469  1
  Pt  Pt170  1  0.77637401  0.56913179  0.50000485  1
  Pt  Pt171  1  0.33955552  0.72679248  0.50000261  1
  Pt  Pt172  1  0.42118560  0.73829445  0.36353200  1
  Pt  Pt173  1  0.71742758  0.65376894  0.60356740  1
  Pt  Pt174  1  0.28259572  0.34625776  0.39648400  1
  Pt  Pt175  1  0.28259508  0.34626065  0.60351158  1
  Pt  Pt176  1  0.71743315  0.65377076  0.39643203  1
  Pt  Pt177  1  0.48100375  0.65377954  0.74011164  1
  Pt  Pt178  1  0.30153564  0.65372068  0.36344963  1
  Pt  Pt179  1  0.30153318  0.65371116  0.63654922  1
  Pt  Pt180  1  0.74026026  0.50002531  0.63892317  1
  Pt  Pt181  1  0.25935698  0.49998865  0.63897975  1
  Pt  Pt182  1  0.48100409  0.65378447  0.25988407  1
  Pt  Pt183  1  0.36143619  0.56918337  0.74015362  1
  Pt  Pt184  1  0.41967527  0.27324090  0.63887545  1
  Pt  Pt185  1  0.57859558  0.26158570  0.63652466  1
  Pt  Pt186  1  0.63836592  0.43084261  0.74016406  1
  Pt  Pt187  1  0.34227254  0.26171408  0.50000501  1
  Pt  Pt188  1  0.66028390  0.27317420  0.50000384  1
  Pt  Pt189  1  0.51891765  0.34624845  0.74020679  1
  Pt  Pt190  1  0.69811068  0.34648810  0.36355824  1
  Pt  Pt191  1  0.69811320  0.34648672  0.63644749  1
  Pt  Pt192  1  0.74026453  0.50001858  0.36107414  1
  Pt  Pt193  1  0.25935668  0.49998960  0.36102210  1
  Pt  Pt194  1  0.41967752  0.27323093  0.36112783  1
  Pt  Pt195  1  0.57860034  0.26159665  0.36348263  1
  Pt  Pt196  1  0.22277724  0.43083326  0.50000050  1
  Pt  Pt197  1  0.51891436  0.34624439  0.25979407  1
  Pt  Pt198  1  0.49995901  0.50001578  0.22209988  1
  Pt  Pt199  1  0.49995182  0.50001655  0.77789624  1
  Pt  Pt200  1  0.36142620  0.56919103  0.25983668  1
  Pt  Pt201  1  0.63835807  0.43084114  0.25983807  1
  Pt  Pt202  1  0.33836890  0.72841893  0.40729411  1
  Pt  Pt203  1  0.66112060  0.72853279  0.40640462  1
  Pt  Pt204  1  0.33837201  0.72840968  0.59270896  1
  Pt  Pt205  1  0.66111206  0.72852306  0.59360401  1
  Pt  Pt206  1  0.50048719  0.72853652  0.31384985  1
  Pt  Pt207  1  0.50048317  0.72852436  0.68614729  1
  Pt  Pt208  1  0.33881860  0.27155478  0.40643544  1
  Pt  Pt209  1  0.23094873  0.42434121  0.40642927  1
  Pt  Pt210  1  0.33881749  0.27155162  0.59356340  1
  Pt  Pt211  1  0.28445314  0.57565972  0.31371172  1
  Pt  Pt212  1  0.23095277  0.42434367  0.59356747  1
  Pt  Pt213  1  0.28446456  0.57565931  0.68628829  1
  Pt  Pt214  1  0.76878201  0.57562365  0.40655017  1
  Pt  Pt215  1  0.76877246  0.57562418  0.59345336  1
  Pt  Pt216  1  0.44651154  0.57563879  0.22023538  1
  Pt  Pt217  1  0.44651755  0.57564615  0.77975394  1
  Pt  Pt218  1  0.49938377  0.27154409  0.31374310  1
  Pt  Pt219  1  0.49938156  0.27154258  0.68625724  1
  Pt  Pt220  1  0.66146065  0.27188146  0.40747213  1
  Pt  Pt221  1  0.66145055  0.27187538  0.59253392  1
  Pt  Pt222  1  0.55335069  0.42436738  0.22022664  1
  Pt  Pt223  1  0.71536362  0.42436107  0.31354431  1
  Pt  Pt224  1  0.55335143  0.42437626  0.77977002  1
  Pt  Pt225  1  0.71536381  0.42436551  0.68645489  1
  Pt  Pt226  1  0.52543429  0.80457275  0.54396304  1
  Pt  Pt227  1  0.47440187  0.19554750  0.54396198  1
  Pt  Pt228  1  0.52543566  0.80457202  0.45603746  1
  Pt  Pt229  1  0.55050951  0.19548741  0.50000025  1
  Pt  Pt230  1  0.44937942  0.80429008  0.49999971  1
  Pt  Pt231  1  0.63502290  0.64941025  0.73396331  1
  Pt  Pt232  1  0.60970741  0.57761221  0.77793230  1
  Pt  Pt233  1  0.68579465  0.57763223  0.73394978  1
  Pt  Pt234  1  0.36490844  0.35065070  0.73395816  1
  Pt  Pt235  1  0.79656408  0.42268521  0.54405461  1
  Pt  Pt236  1  0.47440230  0.19555014  0.45603791  1
  Pt  Pt237  1  0.79656597  0.42268227  0.45595389  1
  Pt  Pt238  1  0.39017762  0.42239048  0.77803781  1
  Pt  Pt239  1  0.77737727  0.34843475  0.50000489  1
  Pt  Pt240  1  0.22985370  0.64933215  0.49999925  1
  Pt  Pt241  1  0.68580588  0.57763249  0.26604312  1
  Pt  Pt242  1  0.20445605  0.57757310  0.54396281  1
  Pt  Pt243  1  0.63502826  0.64942171  0.26603059  1
  Pt  Pt244  1  0.31407767  0.42239666  0.73400449  1
  Pt  Pt245  1  0.20445476  0.57757230  0.45603507  1
  Pt  Pt246  1  0.36490821  0.35065932  0.26604472  1
  Pt  Pt247  1  0.60970483  0.57761463  0.22205382  1
  Pt  Pt248  1  0.31407946  0.42240230  0.26599035  1
  Pt  Pt249  1  0.39017787  0.42238982  0.22196499  1
  Pt  Pt250  1  0.65859004  0.71752857  0.68271032  1
  Pt  Pt251  1  0.73128942  0.71699117  0.54367143  1
  Pt  Pt252  1  0.73129404  0.71698732  0.45634276  1
  Pt  Pt253  1  0.52325318  0.79639033  0.36800428  1
  Pt  Pt254  1  0.37419016  0.79626212  0.45396878  1
  Pt  Pt255  1  0.57879302  0.71754093  0.72867350  1
  Pt  Pt256  1  0.60287160  0.79645575  0.58601014  1
  Pt  Pt257  1  0.39701866  0.20363233  0.41396089  1
  Pt  Pt258  1  0.39701786  0.20363179  0.58603932  1
  Pt  Pt259  1  0.60287694  0.79646360  0.41399358  1
  Pt  Pt260  1  0.52325582  0.79638408  0.63199275  1
  Pt  Pt261  1  0.75782876  0.57698735  0.68257868  1
  Pt  Pt262  1  0.34655491  0.71703757  0.67850753  1
  Pt  Pt263  1  0.42221941  0.71709023  0.72218116  1
  Pt  Pt264  1  0.65859746  0.71753625  0.31729294  1
  Pt  Pt265  1  0.78179499  0.64571528  0.45634479  1
  Pt  Pt266  1  0.37419028  0.79625938  0.54602625  1
  Pt  Pt267  1  0.57879009  0.71754871  0.27132120  1
  Pt  Pt268  1  0.47670403  0.20367849  0.36799234  1
  Pt  Pt269  1  0.62560979  0.20380054  0.45398968  1
  Pt  Pt270  1  0.78179235  0.64571822  0.54366481  1
  Pt  Pt271  1  0.26251468  0.71747608  0.54599001  1
  Pt  Pt272  1  0.32134985  0.64572449  0.72223924  1
  Pt  Pt273  1  0.21821450  0.35429263  0.45631530  1
  Pt  Pt274  1  0.26251372  0.71747696  0.45400635  1
  Pt  Pt275  1  0.42221590  0.71710215  0.27780649  1
  Pt  Pt276  1  0.47670351  0.20367718  0.63200843  1
  Pt  Pt277  1  0.34130962  0.28251063  0.68267754  1
  Pt  Pt278  1  0.65328953  0.28298370  0.67839972  1
  Pt  Pt279  1  0.78697765  0.42315229  0.63203396  1
  Pt  Pt280  1  0.21820659  0.35428913  0.54368334  1
  Pt  Pt281  1  0.52926637  0.57701027  0.81474321  1
  Pt  Pt282  1  0.67854695  0.35424106  0.72228778  1
  Pt  Pt283  1  0.75783360  0.57699116  0.31741939  1
  Pt  Pt284  1  0.34654214  0.71705839  0.32148481  1
  Pt  Pt285  1  0.26866370  0.49809354  0.72876107  1
  Pt  Pt286  1  0.73128096  0.50190166  0.72876025  1
  Pt  Pt287  1  0.26852636  0.28288290  0.54369977  1
  Pt  Pt288  1  0.73726386  0.28333794  0.54577032  1
  Pt  Pt289  1  0.81337654  0.49836573  0.58605063  1
  Pt  Pt290  1  0.18630125  0.50188463  0.41396351  1
  Pt  Pt291  1  0.18630320  0.50188850  0.58603203  1
  Pt  Pt292  1  0.81338254  0.49835930  0.41395425  1
  Pt  Pt293  1  0.62560873  0.20379904  0.54601101  1
  Pt  Pt294  1  0.42108516  0.28248117  0.72860777  1
  Pt  Pt295  1  0.24204994  0.42300367  0.68269026  1
  Pt  Pt296  1  0.57769316  0.28294583  0.72216581  1
  Pt  Pt297  1  0.26853304  0.28289041  0.45630330  1
  Pt  Pt298  1  0.73727034  0.28333357  0.45424905  1
  Pt  Pt299  1  0.78697909  0.42313839  0.36797335  1
  Pt  Pt300  1  0.41761321  0.49808649  0.81468352  1
  Pt  Pt301  1  0.58235149  0.50191540  0.81464685  1
  Pt  Pt302  1  0.21288819  0.57703630  0.63203812  1
  Pt  Pt303  1  0.39700524  0.64580393  0.76603281  1
  Pt  Pt304  1  0.60292246  0.35420138  0.23392677  1
  Pt  Pt305  1  0.39700214  0.64580808  0.23395632  1
  Pt  Pt306  1  0.60292135  0.35420850  0.76607076  1
  Pt  Pt307  1  0.47066985  0.42297836  0.81475709  1
  Pt  Pt308  1  0.21288208  0.57703585  0.36795845  1
  Pt  Pt309  1  0.32133755  0.64573144  0.27775131  1
  Pt  Pt310  1  0.26866442  0.49810029  0.27123309  1
  Pt  Pt311  1  0.73128141  0.50190023  0.27123282  1
  Pt  Pt312  1  0.42108282  0.28248618  0.27139085  1
  Pt  Pt313  1  0.57769545  0.28294354  0.27783902  1
  Pt  Pt314  1  0.52926123  0.57701465  0.18524710  1
  Pt  Pt315  1  0.34131299  0.28251194  0.31731885  1
  Pt  Pt316  1  0.65329715  0.28297417  0.32160147  1
  Pt  Pt317  1  0.67854591  0.35423117  0.27770817  1
  Pt  Pt318  1  0.41761043  0.49808351  0.18531154  1
  Pt  Pt319  1  0.58235398  0.50191206  0.18534669  1
  Pt  Pt320  1  0.24205187  0.42300497  0.31730850  1
  Pt  Pt321  1  0.47066981  0.42297386  0.18523827  1
