# generated using pymatgen
data_Ni43HPt278
_symmetry_space_group_name_H-M   'P 1'
_cell_length_a   30.00000000
_cell_length_b   30.00000000
_cell_length_c   30.00000000
_cell_angle_alpha   90.00000000
_cell_angle_beta   90.00000000
_cell_angle_gamma   90.00000000
_symmetry_Int_Tables_number   1
_chemical_formula_structural   Ni43HPt278
_chemical_formula_sum   'Ni43 H1 Pt278'
_cell_volume   27000.00000000
_cell_formula_units_Z   1
loop_
 _symmetry_equiv_pos_site_id
 _symmetry_equiv_pos_as_xyz
  1  'x, y, z'
loop_
 _atom_site_type_symbol
 _atom_site_label
 _atom_site_symmetry_multiplicity
 _atom_site_fract_x
 _atom_site_fract_y
 _atom_site_fract_z
 _atom_site_occupancy
  Ni  Ni0  1  0.49997608  0.50000965  0.49998192  1
  Ni  Ni1  1  0.44742039  0.35120568  0.40879869  1
  Ni  Ni2  1  0.55285859  0.64875314  0.59092824  1
  Ni  Ni3  1  0.44746252  0.35122226  0.59119720  1
  Ni  Ni4  1  0.55239632  0.64883714  0.40867255  1
  Ni  Ni5  1  0.39484737  0.64865753  0.50004254  1
  Ni  Ni6  1  0.60513846  0.35129551  0.49992083  1
  Ni  Ni7  1  0.65779762  0.49955831  0.59148204  1
  Ni  Ni8  1  0.34212473  0.49994984  0.40888529  1
  Ni  Ni9  1  0.34213129  0.49999301  0.59113889  1
  Ni  Ni10  1  0.65789113  0.50032843  0.40905488  1
  Ni  Ni11  1  0.50003348  0.49996487  0.31778720  1
  Ni  Ni12  1  0.49991248  0.50003819  0.68222451  1
  Ni  Ni13  1  0.29110817  0.35233608  0.49998469  1
  Ni  Ni14  1  0.70892414  0.64805519  0.49968641  1
  Ni  Ni15  1  0.39572707  0.64759649  0.68101014  1
  Ni  Ni16  1  0.60450225  0.35242149  0.31909838  1
  Ni  Ni17  1  0.60442281  0.35234059  0.68100747  1
  Ni  Ni18  1  0.39561236  0.64759901  0.31904305  1
  Ni  Ni19  1  0.40133402  0.20423860  0.50001462  1
  Ni  Ni20  1  0.59894317  0.79523144  0.49996075  1
  Ni  Ni21  1  0.45080964  0.79567169  0.58538329  1
  Ni  Ni22  1  0.54927680  0.20415007  0.41455570  1
  Ni  Ni23  1  0.54934332  0.20410044  0.58540808  1
  Ni  Ni24  1  0.45073212  0.79590555  0.41461305  1
  Ni  Ni25  1  0.70546751  0.64502064  0.68449569  1
  Ni  Ni26  1  0.29480373  0.35486123  0.31541481  1
  Ni  Ni27  1  0.29477753  0.35483780  0.68461093  1
  Ni  Ni28  1  0.70514022  0.64512858  0.31601546  1
  Ni  Ni29  1  0.81188023  0.49458134  0.50023114  1
  Ni  Ni30  1  0.18817210  0.50558583  0.50002692  1
  Ni  Ni31  1  0.76247426  0.35511497  0.41458356  1
  Ni  Ni32  1  0.23747978  0.64516367  0.58543159  1
  Ni  Ni33  1  0.76244682  0.35487491  0.58551081  1
  Ni  Ni34  1  0.23745751  0.64509453  0.41450661  1
  Ni  Ni35  1  0.44270261  0.35491521  0.22988671  1
  Ni  Ni36  1  0.55740838  0.64513971  0.76987085  1
  Ni  Ni37  1  0.44267187  0.35486519  0.77013410  1
  Ni  Ni38  1  0.55738729  0.64509453  0.22993887  1
  Ni  Ni39  1  0.65584968  0.50556065  0.77001434  1
  Ni  Ni40  1  0.34407360  0.49438108  0.22993430  1
  Ni  Ni41  1  0.65588367  0.50565122  0.23020990  1
  Ni  Ni42  1  0.34406967  0.49437751  0.77004312  1
  H  H43  1  0.77731413  0.75073836  0.45523813  1
  Pt  Pt44  1  0.52652475  0.57497212  0.54590008  1
  Pt  Pt45  1  0.52642440  0.57497161  0.45403001  1
  Pt  Pt46  1  0.44698596  0.57489018  0.50001376  1
  Pt  Pt47  1  0.57953148  0.49983516  0.54606381  1
  Pt  Pt48  1  0.42042550  0.49997695  0.54591540  1
  Pt  Pt49  1  0.49995763  0.50002698  0.59180069  1
  Pt  Pt50  1  0.49999518  0.49997399  0.40818846  1
  Pt  Pt51  1  0.57951663  0.50004856  0.45413058  1
  Pt  Pt52  1  0.42042725  0.49994690  0.45409322  1
  Pt  Pt53  1  0.55297922  0.42509010  0.49996201  1
  Pt  Pt54  1  0.47348647  0.42499414  0.54594323  1
  Pt  Pt55  1  0.47347783  0.42498880  0.45405110  1
  Pt  Pt56  1  0.44655025  0.57539489  0.40760308  1
  Pt  Pt57  1  0.44659044  0.57549528  0.59234655  1
  Pt  Pt58  1  0.60660538  0.57524206  0.50010733  1
  Pt  Pt59  1  0.39329300  0.42457224  0.49999747  1
  Pt  Pt60  1  0.55339019  0.42459203  0.40756010  1
  Pt  Pt61  1  0.55333168  0.42447912  0.59242299  1
  Pt  Pt62  1  0.60608261  0.57487791  0.59124826  1
  Pt  Pt63  1  0.47317455  0.64938843  0.45364186  1
  Pt  Pt64  1  0.52587370  0.57505548  0.63741496  1
  Pt  Pt65  1  0.44645736  0.35058598  0.50000038  1
  Pt  Pt66  1  0.55365777  0.64937534  0.49969906  1
  Pt  Pt67  1  0.47338058  0.64943662  0.54629447  1
  Pt  Pt68  1  0.60602260  0.57532952  0.40897760  1
  Pt  Pt69  1  0.52673867  0.35059039  0.45362651  1
  Pt  Pt70  1  0.42057499  0.50060107  0.63741717  1
  Pt  Pt71  1  0.36797876  0.57500858  0.54633019  1
  Pt  Pt72  1  0.57925473  0.49928901  0.63763610  1
  Pt  Pt73  1  0.63196388  0.42474097  0.54635036  1
  Pt  Pt74  1  0.52580813  0.57499335  0.36251539  1
  Pt  Pt75  1  0.34121445  0.49932711  0.49999791  1
  Pt  Pt76  1  0.65868897  0.50048742  0.50014900  1
  Pt  Pt77  1  0.39386947  0.42492961  0.59114396  1
  Pt  Pt78  1  0.36797342  0.57498052  0.45368635  1
  Pt  Pt79  1  0.63198190  0.42507469  0.45365069  1
  Pt  Pt80  1  0.47412154  0.42499263  0.63750859  1
  Pt  Pt81  1  0.52677158  0.35054888  0.54631845  1
  Pt  Pt82  1  0.42059295  0.50055694  0.36256091  1
  Pt  Pt83  1  0.57946234  0.49951971  0.36262756  1
  Pt  Pt84  1  0.47414125  0.42496963  0.36249983  1
  Pt  Pt85  1  0.39385352  0.42491243  0.40887253  1
  Pt  Pt86  1  0.63642841  0.65099202  0.54491633  1
  Pt  Pt87  1  0.47103609  0.65147598  0.64035937  1
  Pt  Pt88  1  0.68794876  0.57711829  0.54556268  1
  Pt  Pt89  1  0.68803224  0.57793901  0.45547031  1
  Pt  Pt90  1  0.44501275  0.57774808  0.68535994  1
  Pt  Pt91  1  0.36385933  0.34858177  0.54509999  1
  Pt  Pt92  1  0.52905945  0.34855606  0.64043801  1
  Pt  Pt93  1  0.63626108  0.65161356  0.45481519  1
  Pt  Pt94  1  0.55498707  0.42213864  0.68557949  1
  Pt  Pt95  1  0.39284752  0.65152710  0.59540668  1
  Pt  Pt96  1  0.60710896  0.34857628  0.40465100  1
  Pt  Pt97  1  0.60714604  0.34839734  0.59539523  1
  Pt  Pt98  1  0.39285763  0.65150201  0.40465517  1
  Pt  Pt99  1  0.36686993  0.57786252  0.64039432  1
  Pt  Pt100  1  0.63305949  0.42210804  0.64043542  1
  Pt  Pt101  1  0.47087786  0.65141793  0.35953347  1
  Pt  Pt102  1  0.36385866  0.34857504  0.45491489  1
  Pt  Pt103  1  0.31185296  0.42220276  0.54508790  1
  Pt  Pt104  1  0.36686784  0.57778043  0.35963405  1
  Pt  Pt105  1  0.63316374  0.42231680  0.35962592  1
  Pt  Pt106  1  0.31179357  0.42215291  0.45492898  1
  Pt  Pt107  1  0.52907716  0.34857805  0.35952369  1
  Pt  Pt108  1  0.44498581  0.57775224  0.31454590  1
  Pt  Pt109  1  0.55505763  0.42219894  0.31450550  1
  Pt  Pt110  1  0.50017570  0.72560207  0.49996088  1
  Pt  Pt111  1  0.28717799  0.57516225  0.50001628  1
  Pt  Pt112  1  0.60646601  0.57533110  0.31582185  1
  Pt  Pt113  1  0.60647863  0.57518567  0.68432183  1
  Pt  Pt114  1  0.49996483  0.27435763  0.50001174  1
  Pt  Pt115  1  0.39361005  0.42475913  0.31569599  1
  Pt  Pt116  1  0.39358144  0.42474476  0.68429277  1
  Pt  Pt117  1  0.71284307  0.42485305  0.50009316  1
  Pt  Pt118  1  0.57958635  0.72128943  0.54597416  1
  Pt  Pt119  1  0.50070108  0.72141868  0.59168019  1
  Pt  Pt120  1  0.57927319  0.72148595  0.45332203  1
  Pt  Pt121  1  0.42045698  0.72135821  0.54557903  1
  Pt  Pt122  1  0.42041832  0.72142953  0.45441584  1
  Pt  Pt123  1  0.50031083  0.72144123  0.40816523  1
  Pt  Pt124  1  0.68397933  0.57351944  0.63520140  1
  Pt  Pt125  1  0.31775348  0.64888870  0.54561289  1
  Pt  Pt126  1  0.63031147  0.64929286  0.36482596  1
  Pt  Pt127  1  0.63087304  0.64882447  0.63484381  1
  Pt  Pt128  1  0.68393261  0.57376328  0.36523943  1
  Pt  Pt129  1  0.52501074  0.57358194  0.72678068  1
  Pt  Pt130  1  0.70893357  0.42632737  0.59188548  1
  Pt  Pt131  1  0.68219945  0.35102060  0.54557985  1
  Pt  Pt132  1  0.49967815  0.27853714  0.59179247  1
  Pt  Pt133  1  0.55175704  0.64892334  0.68042575  1
  Pt  Pt134  1  0.44839853  0.35109432  0.31931583  1
  Pt  Pt135  1  0.44838337  0.35110409  0.68071050  1
  Pt  Pt136  1  0.55155880  0.64891774  0.31931908  1
  Pt  Pt137  1  0.29106875  0.57349071  0.59179228  1
  Pt  Pt138  1  0.36941291  0.35107679  0.36493428  1
  Pt  Pt139  1  0.73537588  0.50088053  0.54626685  1
  Pt  Pt140  1  0.26471903  0.49904459  0.54622750  1
  Pt  Pt141  1  0.36939743  0.35104886  0.63506737  1
  Pt  Pt142  1  0.57749567  0.49906465  0.72683776  1
  Pt  Pt143  1  0.31776064  0.64887012  0.45437914  1
  Pt  Pt144  1  0.42235875  0.50088488  0.72676174  1
  Pt  Pt145  1  0.42066243  0.27859830  0.54622589  1
  Pt  Pt146  1  0.57966089  0.27852728  0.54556983  1
  Pt  Pt147  1  0.73525162  0.50122496  0.45404050  1
  Pt  Pt148  1  0.26471419  0.49902045  0.45376294  1
  Pt  Pt149  1  0.42065834  0.27859938  0.45379052  1
  Pt  Pt150  1  0.57959413  0.27857697  0.45436186  1
  Pt  Pt151  1  0.47500634  0.42650638  0.72689477  1
  Pt  Pt152  1  0.65761529  0.49893613  0.68079507  1
  Pt  Pt153  1  0.34233163  0.50094406  0.31937616  1
  Pt  Pt154  1  0.34234323  0.50096501  0.68060409  1
  Pt  Pt155  1  0.65781659  0.49932033  0.31959202  1
  Pt  Pt156  1  0.31605693  0.42648499  0.63503373  1
  Pt  Pt157  1  0.70889985  0.42678467  0.40828061  1
  Pt  Pt158  1  0.52500950  0.57350609  0.27316579  1
  Pt  Pt159  1  0.49963154  0.27859276  0.40818542  1
  Pt  Pt160  1  0.68227074  0.35124028  0.45437548  1
  Pt  Pt161  1  0.29104369  0.57344805  0.40820480  1
  Pt  Pt162  1  0.31604438  0.42649867  0.36498161  1
  Pt  Pt163  1  0.57761720  0.49916586  0.27333465  1
  Pt  Pt164  1  0.42239555  0.50089965  0.27321589  1
  Pt  Pt165  1  0.47506381  0.42648888  0.27313313  1
  Pt  Pt166  1  0.65766580  0.73630624  0.49897565  1
  Pt  Pt167  1  0.58050033  0.72659121  0.63859185  1
  Pt  Pt168  1  0.58019467  0.72721080  0.36075412  1
  Pt  Pt169  1  0.42150828  0.73794975  0.63648585  1
  Pt  Pt170  1  0.77746089  0.56966604  0.49956644  1
  Pt  Pt171  1  0.33979897  0.72652926  0.49996235  1
  Pt  Pt172  1  0.42118010  0.73839120  0.36347501  1
  Pt  Pt173  1  0.71762433  0.65445321  0.60333810  1
  Pt  Pt174  1  0.28256192  0.34626861  0.39654280  1
  Pt  Pt175  1  0.28254614  0.34630646  0.60348007  1
  Pt  Pt176  1  0.71594244  0.65393311  0.39802060  1
  Pt  Pt177  1  0.48103991  0.65372774  0.74001156  1
  Pt  Pt178  1  0.30165576  0.65373778  0.36343514  1
  Pt  Pt179  1  0.30156880  0.65376274  0.63658240  1
  Pt  Pt180  1  0.74056988  0.49992660  0.63898504  1
  Pt  Pt181  1  0.25937398  0.50000033  0.63895824  1
  Pt  Pt182  1  0.48101890  0.65376396  0.25978275  1
  Pt  Pt183  1  0.36150939  0.56923760  0.74009198  1
  Pt  Pt184  1  0.41986222  0.27333137  0.63886250  1
  Pt  Pt185  1  0.57880619  0.26169036  0.63648830  1
  Pt  Pt186  1  0.63841500  0.43064277  0.74000186  1
  Pt  Pt187  1  0.34231355  0.26181616  0.49996194  1
  Pt  Pt188  1  0.66024105  0.27343204  0.49996075  1
  Pt  Pt189  1  0.51900340  0.34630576  0.74015057  1
  Pt  Pt190  1  0.69833806  0.34642216  0.36347589  1
  Pt  Pt191  1  0.69819504  0.34621326  0.63663661  1
  Pt  Pt192  1  0.74056432  0.50029611  0.36139242  1
  Pt  Pt193  1  0.25934581  0.49997930  0.36104656  1
  Pt  Pt194  1  0.41981973  0.27326187  0.36111051  1
  Pt  Pt195  1  0.57883754  0.26170513  0.36343629  1
  Pt  Pt196  1  0.22285457  0.43074681  0.50000002  1
  Pt  Pt197  1  0.51902857  0.34623589  0.25981048  1
  Pt  Pt198  1  0.50000478  0.50001601  0.22225259  1
  Pt  Pt199  1  0.49998101  0.50001108  0.77775455  1
  Pt  Pt200  1  0.36151492  0.56922360  0.25992290  1
  Pt  Pt201  1  0.63844840  0.43086871  0.26040727  1
  Pt  Pt202  1  0.33856096  0.72836025  0.40736903  1
  Pt  Pt203  1  0.66098526  0.72878535  0.40608629  1
  Pt  Pt204  1  0.33853354  0.72835485  0.59258680  1
  Pt  Pt205  1  0.66118503  0.72822224  0.59279279  1
  Pt  Pt206  1  0.50064469  0.72822591  0.31404530  1
  Pt  Pt207  1  0.50073332  0.72832111  0.68603689  1
  Pt  Pt208  1  0.33908044  0.27177351  0.40643171  1
  Pt  Pt209  1  0.23111796  0.42438414  0.40647946  1
  Pt  Pt210  1  0.33906103  0.27172101  0.59354634  1
  Pt  Pt211  1  0.28466859  0.57556069  0.31390700  1
  Pt  Pt212  1  0.23114600  0.42443501  0.59348926  1
  Pt  Pt213  1  0.28467652  0.57555650  0.68609047  1
  Pt  Pt214  1  0.76862169  0.57629885  0.40670341  1
  Pt  Pt215  1  0.76869326  0.57526841  0.59374301  1
  Pt  Pt216  1  0.44660821  0.57555582  0.22043208  1
  Pt  Pt217  1  0.44663426  0.57553743  0.77944888  1
  Pt  Pt218  1  0.49946993  0.27172402  0.31393034  1
  Pt  Pt219  1  0.49948976  0.27174024  0.68606114  1
  Pt  Pt220  1  0.66142190  0.27179534  0.40741529  1
  Pt  Pt221  1  0.66144905  0.27151445  0.59257911  1
  Pt  Pt222  1  0.55341635  0.42448783  0.22039867  1
  Pt  Pt223  1  0.71546659  0.42458147  0.31395577  1
  Pt  Pt224  1  0.55336259  0.42442414  0.77972585  1
  Pt  Pt225  1  0.71534429  0.42428885  0.68622556  1
  Pt  Pt226  1  0.52549782  0.80433384  0.54394338  1
  Pt  Pt227  1  0.47461659  0.19559925  0.54391696  1
  Pt  Pt228  1  0.52544689  0.80427845  0.45618922  1
  Pt  Pt229  1  0.55068688  0.19561918  0.50001206  1
  Pt  Pt230  1  0.44941443  0.80438923  0.50004326  1
  Pt  Pt231  1  0.63515910  0.64928684  0.73380072  1
  Pt  Pt232  1  0.60976742  0.57759863  0.77783761  1
  Pt  Pt233  1  0.68588088  0.57760177  0.73396304  1
  Pt  Pt234  1  0.36491177  0.35064805  0.73398936  1
  Pt  Pt235  1  0.79555002  0.42251097  0.54399988  1
  Pt  Pt236  1  0.47462938  0.19564080  0.45613348  1
  Pt  Pt237  1  0.79543827  0.42262758  0.45612405  1
  Pt  Pt238  1  0.39029021  0.42239104  0.77786096  1
  Pt  Pt239  1  0.77012552  0.35083045  0.50002089  1
  Pt  Pt240  1  0.22988500  0.64925287  0.49997590  1
  Pt  Pt241  1  0.68586703  0.57761261  0.26618598  1
  Pt  Pt242  1  0.20449985  0.57757734  0.54391287  1
  Pt  Pt243  1  0.63514249  0.64921982  0.26617547  1
  Pt  Pt244  1  0.31424517  0.42236807  0.73394404  1
  Pt  Pt245  1  0.20452816  0.57754406  0.45607006  1
  Pt  Pt246  1  0.36494436  0.35072524  0.26600262  1
  Pt  Pt247  1  0.60981762  0.57760131  0.22218921  1
  Pt  Pt248  1  0.31425521  0.42241131  0.26606699  1
  Pt  Pt249  1  0.39029057  0.42243966  0.22212355  1
  Pt  Pt250  1  0.65896900  0.71722770  0.68223571  1
  Pt  Pt251  1  0.73157330  0.71682577  0.54237537  1
  Pt  Pt252  1  0.73435330  0.72119914  0.45464781  1
  Pt  Pt253  1  0.52309651  0.79650255  0.36821834  1
  Pt  Pt254  1  0.37424908  0.79627720  0.45402937  1
  Pt  Pt255  1  0.57916588  0.71743614  0.72829135  1
  Pt  Pt256  1  0.60295502  0.79625813  0.58586731  1
  Pt  Pt257  1  0.39724902  0.20373234  0.41405434  1
  Pt  Pt258  1  0.39724687  0.20374252  0.58598679  1
  Pt  Pt259  1  0.60275615  0.79667786  0.41403862  1
  Pt  Pt260  1  0.52333681  0.79628502  0.63196668  1
  Pt  Pt261  1  0.75793624  0.57691193  0.68277949  1
  Pt  Pt262  1  0.34671277  0.71697764  0.67841185  1
  Pt  Pt263  1  0.42234945  0.71707665  0.72219799  1
  Pt  Pt264  1  0.65875205  0.71752835  0.31700373  1
  Pt  Pt265  1  0.78107524  0.64679350  0.45663415  1
  Pt  Pt266  1  0.37422707  0.79618910  0.54591582  1
  Pt  Pt267  1  0.57903162  0.71731522  0.27125667  1
  Pt  Pt268  1  0.47688045  0.20367643  0.36810334  1
  Pt  Pt269  1  0.62579383  0.20373029  0.45397360  1
  Pt  Pt270  1  0.78155390  0.64504920  0.54408993  1
  Pt  Pt271  1  0.26259341  0.71740026  0.54591628  1
  Pt  Pt272  1  0.32140940  0.64568983  0.72219219  1
  Pt  Pt273  1  0.21817164  0.35421121  0.45633723  1
  Pt  Pt274  1  0.26259577  0.71735243  0.45396827  1
  Pt  Pt275  1  0.42236953  0.71707723  0.27786682  1
  Pt  Pt276  1  0.47687468  0.20367524  0.63192769  1
  Pt  Pt277  1  0.34140793  0.28255708  0.68269847  1
  Pt  Pt278  1  0.65346068  0.28278743  0.67847669  1
  Pt  Pt279  1  0.78711135  0.42293721  0.63203708  1
  Pt  Pt280  1  0.21812775  0.35424600  0.54369969  1
  Pt  Pt281  1  0.52931984  0.57706256  0.81459326  1
  Pt  Pt282  1  0.67858873  0.35412222  0.72231789  1
  Pt  Pt283  1  0.75787644  0.57718255  0.31754293  1
  Pt  Pt284  1  0.34663342  0.71698174  0.32147237  1
  Pt  Pt285  1  0.26874697  0.49803281  0.72868587  1
  Pt  Pt286  1  0.73128896  0.50185299  0.72876005  1
  Pt  Pt287  1  0.26869130  0.28298377  0.54365580  1
  Pt  Pt288  1  0.73743454  0.28266007  0.54598563  1
  Pt  Pt289  1  0.81375174  0.49808173  0.58614591  1
  Pt  Pt290  1  0.18628494  0.50183573  0.41406588  1
  Pt  Pt291  1  0.18629970  0.50189959  0.58597287  1
  Pt  Pt292  1  0.81356073  0.49857179  0.41434601  1
  Pt  Pt293  1  0.62582914  0.20362700  0.54583825  1
  Pt  Pt294  1  0.42111641  0.28257274  0.72860656  1
  Pt  Pt295  1  0.24220282  0.42293802  0.68265483  1
  Pt  Pt296  1  0.57777136  0.28301200  0.72214627  1
  Pt  Pt297  1  0.26859764  0.28284215  0.45625625  1
  Pt  Pt298  1  0.73741279  0.28272303  0.45401801  1
  Pt  Pt299  1  0.78711629  0.42333110  0.36815291  1
  Pt  Pt300  1  0.41756542  0.49810903  0.81455311  1
  Pt  Pt301  1  0.58238875  0.50194614  0.81458246  1
  Pt  Pt302  1  0.21293986  0.57706598  0.63192681  1
  Pt  Pt303  1  0.39705508  0.64578738  0.76602235  1
  Pt  Pt304  1  0.60303279  0.35435670  0.23406780  1
  Pt  Pt305  1  0.39702806  0.64578203  0.23406240  1
  Pt  Pt306  1  0.60294456  0.35422670  0.76615850  1
  Pt  Pt307  1  0.47064226  0.42296030  0.81470694  1
  Pt  Pt308  1  0.21287400  0.57698891  0.36804670  1
  Pt  Pt309  1  0.32131787  0.64569018  0.27775081  1
  Pt  Pt310  1  0.26872244  0.49803989  0.27130704  1
  Pt  Pt311  1  0.73144598  0.50203013  0.27150446  1
  Pt  Pt312  1  0.42114187  0.28263867  0.27136890  1
  Pt  Pt313  1  0.57779856  0.28301987  0.27784020  1
  Pt  Pt314  1  0.52934407  0.57710521  0.18538706  1
  Pt  Pt315  1  0.34140627  0.28261972  0.31726087  1
  Pt  Pt316  1  0.65349663  0.28302859  0.32150226  1
  Pt  Pt317  1  0.67874577  0.35437697  0.27780138  1
  Pt  Pt318  1  0.41760355  0.49811069  0.18543345  1
  Pt  Pt319  1  0.58239578  0.50194230  0.18553159  1
  Pt  Pt320  1  0.24219628  0.42290398  0.31734360  1
  Pt  Pt321  1  0.47070734  0.42299719  0.18531962  1
