# generated using pymatgen
data_Ni43HPt278
_symmetry_space_group_name_H-M   'P 1'
_cell_length_a   30.00000000
_cell_length_b   30.00000000
_cell_length_c   30.00000000
_cell_angle_alpha   90.00000000
_cell_angle_beta   90.00000000
_cell_angle_gamma   90.00000000
_symmetry_Int_Tables_number   1
_chemical_formula_structural   Ni43HPt278
_chemical_formula_sum   'Ni43 H1 Pt278'
_cell_volume   27000.00000000
_cell_formula_units_Z   1
loop_
 _symmetry_equiv_pos_site_id
 _symmetry_equiv_pos_as_xyz
  1  'x, y, z'
loop_
 _atom_site_type_symbol
 _atom_site_label
 _atom_site_symmetry_multiplicity
 _atom_site_fract_x
 _atom_site_fract_y
 _atom_site_fract_z
 _atom_site_occupancy
  Ni  Ni0  1  0.50000490  0.49985032  0.49998593  1
  Ni  Ni1  1  0.44710064  0.35138851  0.40898364  1
  Ni  Ni2  1  0.55257852  0.64882396  0.59120254  1
  Ni  Ni3  1  0.44739366  0.35118835  0.59124607  1
  Ni  Ni4  1  0.55260799  0.64873598  0.40878174  1
  Ni  Ni5  1  0.39480194  0.64876813  0.50001589  1
  Ni  Ni6  1  0.60521824  0.35145458  0.50034031  1
  Ni  Ni7  1  0.65792765  0.50000297  0.59115898  1
  Ni  Ni8  1  0.34207030  0.49996133  0.40883398  1
  Ni  Ni9  1  0.34206760  0.49999655  0.59115340  1
  Ni  Ni10  1  0.65789193  0.49994318  0.40885007  1
  Ni  Ni11  1  0.50001495  0.49987952  0.31771637  1
  Ni  Ni12  1  0.50000417  0.50000833  0.68228057  1
  Ni  Ni13  1  0.29117767  0.35236132  0.49991864  1
  Ni  Ni14  1  0.70881649  0.64772956  0.49997669  1
  Ni  Ni15  1  0.39563256  0.64767413  0.68092591  1
  Ni  Ni16  1  0.60435079  0.35179352  0.31913108  1
  Ni  Ni17  1  0.60441001  0.35240631  0.68087813  1
  Ni  Ni18  1  0.39566365  0.64770100  0.31907562  1
  Ni  Ni19  1  0.40167670  0.20422365  0.50022005  1
  Ni  Ni20  1  0.59860489  0.79587376  0.50004249  1
  Ni  Ni21  1  0.45069821  0.79596567  0.58543014  1
  Ni  Ni22  1  0.54902383  0.20393966  0.41484332  1
  Ni  Ni23  1  0.54899848  0.20420953  0.58514688  1
  Ni  Ni24  1  0.45068289  0.79594074  0.41462331  1
  Ni  Ni25  1  0.70527515  0.64512118  0.68469364  1
  Ni  Ni26  1  0.29498509  0.35480713  0.31543204  1
  Ni  Ni27  1  0.29472386  0.35488248  0.68470619  1
  Ni  Ni28  1  0.70526476  0.64513479  0.31529466  1
  Ni  Ni29  1  0.81191134  0.49429996  0.49997794  1
  Ni  Ni30  1  0.18805642  0.50564812  0.50002199  1
  Ni  Ni31  1  0.76245731  0.35486467  0.41446668  1
  Ni  Ni32  1  0.23742270  0.64510019  0.58540801  1
  Ni  Ni33  1  0.76237177  0.35486960  0.58528799  1
  Ni  Ni34  1  0.23740768  0.64507114  0.41456501  1
  Ni  Ni35  1  0.44278411  0.35483231  0.23001269  1
  Ni  Ni36  1  0.55739198  0.64509885  0.77005496  1
  Ni  Ni37  1  0.44261098  0.35492774  0.77008432  1
  Ni  Ni38  1  0.55739584  0.64510949  0.22991952  1
  Ni  Ni39  1  0.65594657  0.50567345  0.77016996  1
  Ni  Ni40  1  0.34408056  0.49423663  0.22987967  1
  Ni  Ni41  1  0.65589469  0.50571887  0.22996180  1
  Ni  Ni42  1  0.34402971  0.49436656  0.77015441  1
  H  H43  1  0.55490323  0.15631868  0.40738369  1
  Pt  Pt44  1  0.52654272  0.57511044  0.54601301  1
  Pt  Pt45  1  0.52656096  0.57502133  0.45398826  1
  Pt  Pt46  1  0.44692307  0.57503471  0.50000074  1
  Pt  Pt47  1  0.57964232  0.50004848  0.54596926  1
  Pt  Pt48  1  0.42031789  0.50000100  0.54599432  1
  Pt  Pt49  1  0.50000518  0.50002522  0.59201788  1
  Pt  Pt50  1  0.50000804  0.49988724  0.40798517  1
  Pt  Pt51  1  0.57966997  0.49989505  0.45398101  1
  Pt  Pt52  1  0.42036042  0.49999091  0.45402477  1
  Pt  Pt53  1  0.55304896  0.42484299  0.50003320  1
  Pt  Pt54  1  0.47345014  0.42484554  0.54601409  1
  Pt  Pt55  1  0.47342731  0.42476432  0.45401501  1
  Pt  Pt56  1  0.44665593  0.57537071  0.40756143  1
  Pt  Pt57  1  0.44660155  0.57540852  0.59241500  1
  Pt  Pt58  1  0.60668896  0.57536804  0.49994413  1
  Pt  Pt59  1  0.39335282  0.42455613  0.50001629  1
  Pt  Pt60  1  0.55328507  0.42438752  0.40772127  1
  Pt  Pt61  1  0.55335260  0.42456592  0.59236233  1
  Pt  Pt62  1  0.60619222  0.57514227  0.59115314  1
  Pt  Pt63  1  0.47325219  0.64947955  0.45365497  1
  Pt  Pt64  1  0.52595723  0.57509547  0.63759324  1
  Pt  Pt65  1  0.44653014  0.35032755  0.50007153  1
  Pt  Pt66  1  0.55353244  0.64950088  0.50000917  1
  Pt  Pt67  1  0.47322917  0.64951576  0.54638911  1
  Pt  Pt68  1  0.60618979  0.57496530  0.40875739  1
  Pt  Pt69  1  0.52666547  0.35006934  0.45378506  1
  Pt  Pt70  1  0.42051907  0.50062027  0.63757604  1
  Pt  Pt71  1  0.36786982  0.57505500  0.54630419  1
  Pt  Pt72  1  0.57949395  0.49945966  0.63753142  1
  Pt  Pt73  1  0.63212922  0.42508049  0.54642777  1
  Pt  Pt74  1  0.52593133  0.57495717  0.36240857  1
  Pt  Pt75  1  0.34111088  0.49940264  0.49996836  1
  Pt  Pt76  1  0.65888542  0.50059661  0.49996133  1
  Pt  Pt77  1  0.39379309  0.42495964  0.59122602  1
  Pt  Pt78  1  0.36796202  0.57507783  0.45359392  1
  Pt  Pt79  1  0.63204824  0.42480398  0.45367167  1
  Pt  Pt80  1  0.47408283  0.42496699  0.63758206  1
  Pt  Pt81  1  0.52670120  0.35031602  0.54633511  1
  Pt  Pt82  1  0.42056441  0.50055798  0.36240988  1
  Pt  Pt83  1  0.57943384  0.49914988  0.36247429  1
  Pt  Pt84  1  0.47406049  0.42477262  0.36244995  1
  Pt  Pt85  1  0.39371113  0.42501798  0.40878952  1
  Pt  Pt86  1  0.63615036  0.65150975  0.54509097  1
  Pt  Pt87  1  0.47099257  0.65148413  0.64045546  1
  Pt  Pt88  1  0.68823533  0.57787069  0.54507927  1
  Pt  Pt89  1  0.68824871  0.57783513  0.45489094  1
  Pt  Pt90  1  0.44495967  0.57779829  0.68555882  1
  Pt  Pt91  1  0.36383419  0.34851195  0.54512715  1
  Pt  Pt92  1  0.52901760  0.34851265  0.64047408  1
  Pt  Pt93  1  0.63611555  0.65144565  0.45485202  1
  Pt  Pt94  1  0.55503307  0.42222782  0.68549050  1
  Pt  Pt95  1  0.39285025  0.65151477  0.59536734  1
  Pt  Pt96  1  0.60701922  0.34836760  0.40493183  1
  Pt  Pt97  1  0.60704160  0.34842511  0.59530650  1
  Pt  Pt98  1  0.39288335  0.65153743  0.40461834  1
  Pt  Pt99  1  0.36678629  0.57782441  0.64046355  1
  Pt  Pt100  1  0.63315638  0.42222925  0.64039342  1
  Pt  Pt101  1  0.47103972  0.65145036  0.35955885  1
  Pt  Pt102  1  0.36394111  0.34842749  0.45497321  1
  Pt  Pt103  1  0.31180838  0.42220373  0.54508332  1
  Pt  Pt104  1  0.36682000  0.57787211  0.35949091  1
  Pt  Pt105  1  0.63313362  0.42184156  0.35950948  1
  Pt  Pt106  1  0.31183993  0.42223528  0.45489054  1
  Pt  Pt107  1  0.52881739  0.34833518  0.35980222  1
  Pt  Pt108  1  0.44495688  0.57780658  0.31442527  1
  Pt  Pt109  1  0.55506438  0.42183697  0.31446297  1
  Pt  Pt110  1  0.50002179  0.72570519  0.50002730  1
  Pt  Pt111  1  0.28707850  0.57527035  0.49995740  1
  Pt  Pt112  1  0.60644597  0.57514735  0.31565609  1
  Pt  Pt113  1  0.60651401  0.57533149  0.68438586  1
  Pt  Pt114  1  0.49991534  0.27351739  0.50010758  1
  Pt  Pt115  1  0.39353570  0.42463964  0.31564217  1
  Pt  Pt116  1  0.39352372  0.42471914  0.68436908  1
  Pt  Pt117  1  0.71287378  0.42471584  0.49998645  1
  Pt  Pt118  1  0.57936664  0.72149942  0.54626413  1
  Pt  Pt119  1  0.50039437  0.72153563  0.59182166  1
  Pt  Pt120  1  0.57934996  0.72147681  0.45377028  1
  Pt  Pt121  1  0.42030236  0.72149753  0.54559771  1
  Pt  Pt122  1  0.42030945  0.72147270  0.45441151  1
  Pt  Pt123  1  0.50038608  0.72148277  0.40821563  1
  Pt  Pt124  1  0.68403426  0.57351497  0.63503794  1
  Pt  Pt125  1  0.31771263  0.64896752  0.54555485  1
  Pt  Pt126  1  0.63062584  0.64892843  0.36488917  1
  Pt  Pt127  1  0.63062761  0.64898856  0.63506661  1
  Pt  Pt128  1  0.68403550  0.57350667  0.36493350  1
  Pt  Pt129  1  0.52499707  0.57350769  0.72692227  1
  Pt  Pt130  1  0.70906183  0.42654068  0.59180520  1
  Pt  Pt131  1  0.68213176  0.35093407  0.54547062  1
  Pt  Pt132  1  0.49960910  0.27843870  0.59184600  1
  Pt  Pt133  1  0.55168862  0.64900139  0.68070083  1
  Pt  Pt134  1  0.44835707  0.35084639  0.31933500  1
  Pt  Pt135  1  0.44836677  0.35106292  0.68073268  1
  Pt  Pt136  1  0.55166521  0.64890120  0.31927724  1
  Pt  Pt137  1  0.29099054  0.57350324  0.59178197  1
  Pt  Pt138  1  0.36952876  0.35086087  0.36500235  1
  Pt  Pt139  1  0.73531573  0.50094913  0.54625442  1
  Pt  Pt140  1  0.26462537  0.49905985  0.54623929  1
  Pt  Pt141  1  0.36934113  0.35103705  0.63508344  1
  Pt  Pt142  1  0.57763446  0.49912598  0.72688657  1
  Pt  Pt143  1  0.31774558  0.64891140  0.45438516  1
  Pt  Pt144  1  0.42236699  0.50087156  0.72690857  1
  Pt  Pt145  1  0.42061820  0.27846180  0.54630357  1
  Pt  Pt146  1  0.57960071  0.27837463  0.54543778  1
  Pt  Pt147  1  0.73535993  0.50092199  0.45374172  1
  Pt  Pt148  1  0.26461956  0.49907251  0.45376344  1
  Pt  Pt149  1  0.42081487  0.27836394  0.45380807  1
  Pt  Pt150  1  0.57953711  0.27795495  0.45449850  1
  Pt  Pt151  1  0.47506028  0.42651226  0.72693737  1
  Pt  Pt152  1  0.65770654  0.49909097  0.68070632  1
  Pt  Pt153  1  0.34229840  0.50089945  0.31936205  1
  Pt  Pt154  1  0.34225534  0.50092089  0.68069035  1
  Pt  Pt155  1  0.65768017  0.49892733  0.31942295  1
  Pt  Pt156  1  0.31594215  0.42647164  0.63504951  1
  Pt  Pt157  1  0.70894996  0.42648138  0.40818873  1
  Pt  Pt158  1  0.52494841  0.57346497  0.27305448  1
  Pt  Pt159  1  0.49963141  0.27782236  0.40836749  1
  Pt  Pt160  1  0.68225682  0.35090829  0.45441234  1
  Pt  Pt161  1  0.29103417  0.57346245  0.40813078  1
  Pt  Pt162  1  0.31594695  0.42647592  0.36486027  1
  Pt  Pt163  1  0.57755991  0.49896686  0.27318600  1
  Pt  Pt164  1  0.42237891  0.50084264  0.27309998  1
  Pt  Pt165  1  0.47503298  0.42644250  0.27309577  1
  Pt  Pt166  1  0.65758601  0.73810043  0.50001974  1
  Pt  Pt167  1  0.58024057  0.72682246  0.63887796  1
  Pt  Pt168  1  0.58018510  0.72670335  0.36115120  1
  Pt  Pt169  1  0.42128819  0.73813935  0.63647270  1
  Pt  Pt170  1  0.77720141  0.56914852  0.50002056  1
  Pt  Pt171  1  0.33967562  0.72674054  0.49997216  1
  Pt  Pt172  1  0.42126227  0.73819017  0.36352502  1
  Pt  Pt173  1  0.71737923  0.65375054  0.60353670  1
  Pt  Pt174  1  0.28277522  0.34628756  0.39662828  1
  Pt  Pt175  1  0.28256737  0.34623374  0.60353079  1
  Pt  Pt176  1  0.71738121  0.65378574  0.39647849  1
  Pt  Pt177  1  0.48100560  0.65369321  0.74002527  1
  Pt  Pt178  1  0.30163756  0.65371757  0.36350598  1
  Pt  Pt179  1  0.30169415  0.65369288  0.63648615  1
  Pt  Pt180  1  0.74075608  0.50004863  0.63905285  1
  Pt  Pt181  1  0.25933493  0.49997653  0.63896348  1
  Pt  Pt182  1  0.48101118  0.65375875  0.25991792  1
  Pt  Pt183  1  0.36153047  0.56918141  0.73996894  1
  Pt  Pt184  1  0.41980590  0.27338464  0.63890721  1
  Pt  Pt185  1  0.57879145  0.26160698  0.63642325  1
  Pt  Pt186  1  0.63852998  0.43082654  0.74002591  1
  Pt  Pt187  1  0.34240670  0.26165671  0.49990140  1
  Pt  Pt188  1  0.66024335  0.27294238  0.49969973  1
  Pt  Pt189  1  0.51901551  0.34628702  0.74013488  1
  Pt  Pt190  1  0.69812686  0.34624861  0.36340445  1
  Pt  Pt191  1  0.69810394  0.34631877  0.63637242  1
  Pt  Pt192  1  0.74064178  0.50002740  0.36106194  1
  Pt  Pt193  1  0.25920419  0.50001050  0.36098191  1
  Pt  Pt194  1  0.42005576  0.27294511  0.36113711  1
  Pt  Pt195  1  0.57864731  0.26376850  0.36372250  1
  Pt  Pt196  1  0.22276667  0.43080178  0.49997120  1
  Pt  Pt197  1  0.51917467  0.34621573  0.26010666  1
  Pt  Pt198  1  0.49997477  0.50001042  0.22216149  1
  Pt  Pt199  1  0.50001544  0.49998268  0.77788628  1
  Pt  Pt200  1  0.36147675  0.56912787  0.25998223  1
  Pt  Pt201  1  0.63852339  0.43082702  0.25993500  1
  Pt  Pt202  1  0.33847041  0.72847189  0.40726791  1
  Pt  Pt203  1  0.66104443  0.72841347  0.40642965  1
  Pt  Pt204  1  0.33849784  0.72846113  0.59269243  1
  Pt  Pt205  1  0.66110983  0.72849924  0.59359281  1
  Pt  Pt206  1  0.50052320  0.72841409  0.31382710  1
  Pt  Pt207  1  0.50053790  0.72846197  0.68618360  1
  Pt  Pt208  1  0.33900289  0.27156769  0.40646160  1
  Pt  Pt209  1  0.23104350  0.42431691  0.40646834  1
  Pt  Pt210  1  0.33889024  0.27156217  0.59354130  1
  Pt  Pt211  1  0.28448853  0.57567642  0.31374620  1
  Pt  Pt212  1  0.23093545  0.42428761  0.59350753  1
  Pt  Pt213  1  0.28448632  0.57569360  0.68624068  1
  Pt  Pt214  1  0.76907088  0.57571469  0.40647165  1
  Pt  Pt215  1  0.76904691  0.57570437  0.59354844  1
  Pt  Pt216  1  0.44647821  0.57563723  0.22019406  1
  Pt  Pt217  1  0.44650620  0.57562964  0.77978087  1
  Pt  Pt218  1  0.49967672  0.27147872  0.31346324  1
  Pt  Pt219  1  0.49954010  0.27158884  0.68625799  1
  Pt  Pt220  1  0.66167164  0.27158742  0.40693011  1
  Pt  Pt221  1  0.66142648  0.27157848  0.59261636  1
  Pt  Pt222  1  0.55345965  0.42436138  0.22017066  1
  Pt  Pt223  1  0.71555116  0.42430446  0.31376896  1
  Pt  Pt224  1  0.55352494  0.42436602  0.77977687  1
  Pt  Pt225  1  0.71546061  0.42432541  0.68617647  1
  Pt  Pt226  1  0.52537428  0.80439602  0.54395587  1
  Pt  Pt227  1  0.47449202  0.19483259  0.54416719  1
  Pt  Pt228  1  0.52536166  0.80432129  0.45609079  1
  Pt  Pt229  1  0.55064748  0.19456622  0.50039214  1
  Pt  Pt230  1  0.44927350  0.80437114  0.50000890  1
  Pt  Pt231  1  0.63510873  0.64936613  0.73401995  1
  Pt  Pt232  1  0.60975585  0.57758777  0.77795108  1
  Pt  Pt233  1  0.68580578  0.57761993  0.73397854  1
  Pt  Pt234  1  0.36490912  0.35067951  0.73398046  1
  Pt  Pt235  1  0.79555781  0.42233615  0.54386106  1
  Pt  Pt236  1  0.47418947  0.19456763  0.45634454  1
  Pt  Pt237  1  0.79553087  0.42235952  0.45602009  1
  Pt  Pt238  1  0.39025070  0.42243117  0.77793015  1
  Pt  Pt239  1  0.77006211  0.35061821  0.49989143  1
  Pt  Pt240  1  0.22981266  0.64930589  0.50000330  1
  Pt  Pt241  1  0.68577839  0.57760488  0.26609908  1
  Pt  Pt242  1  0.20445003  0.57754695  0.54395171  1
  Pt  Pt243  1  0.63504488  0.64934129  0.26608090  1
  Pt  Pt244  1  0.31418116  0.42241742  0.73396109  1
  Pt  Pt245  1  0.20446758  0.57757756  0.45607222  1
  Pt  Pt246  1  0.36506392  0.35053255  0.26605214  1
  Pt  Pt247  1  0.60971044  0.57760270  0.22214780  1
  Pt  Pt248  1  0.31424894  0.42228203  0.26599058  1
  Pt  Pt249  1  0.39029776  0.42228855  0.22205582  1
  Pt  Pt250  1  0.65864073  0.71743321  0.68265937  1
  Pt  Pt251  1  0.73141589  0.71712720  0.54369941  1
  Pt  Pt252  1  0.73140585  0.71714373  0.45631049  1
  Pt  Pt253  1  0.52311324  0.79633915  0.36799971  1
  Pt  Pt254  1  0.37412337  0.79633719  0.45398433  1
  Pt  Pt255  1  0.57891258  0.71751469  0.72860318  1
  Pt  Pt256  1  0.60283657  0.79639739  0.58601687  1
  Pt  Pt257  1  0.39698183  0.20358039  0.41407644  1
  Pt  Pt258  1  0.39720892  0.20371497  0.58630610  1
  Pt  Pt259  1  0.60281240  0.79633632  0.41398399  1
  Pt  Pt260  1  0.52317484  0.79639301  0.63202335  1
  Pt  Pt261  1  0.75789437  0.57699993  0.68270197  1
  Pt  Pt262  1  0.34656154  0.71709348  0.67852535  1
  Pt  Pt263  1  0.42222581  0.71710548  0.72224496  1
  Pt  Pt264  1  0.65860562  0.71748831  0.31731466  1
  Pt  Pt265  1  0.78175601  0.64576883  0.45635023  1
  Pt  Pt266  1  0.37409003  0.79632547  0.54596491  1
  Pt  Pt267  1  0.57887272  0.71749856  0.27139895  1
  Pt  Pt268  1  0.47653284  0.20347748  0.36796699  1
  Pt  Pt269  1  0.62595487  0.20355663  0.45407517  1
  Pt  Pt270  1  0.78175802  0.64577337  0.54366184  1
  Pt  Pt271  1  0.26259638  0.71744173  0.54594428  1
  Pt  Pt272  1  0.32135254  0.64576243  0.72223292  1
  Pt  Pt273  1  0.21821985  0.35417839  0.45629928  1
  Pt  Pt274  1  0.26262028  0.71737583  0.45398088  1
  Pt  Pt275  1  0.42221433  0.71710929  0.27775562  1
  Pt  Pt276  1  0.47671360  0.20371153  0.63215848  1
  Pt  Pt277  1  0.34137810  0.28254506  0.68267574  1
  Pt  Pt278  1  0.65345027  0.28286323  0.67847135  1
  Pt  Pt279  1  0.78715817  0.42303754  0.63195107  1
  Pt  Pt280  1  0.21827517  0.35421070  0.54361922  1
  Pt  Pt281  1  0.52926229  0.57699943  0.81469965  1
  Pt  Pt282  1  0.67863494  0.35422303  0.72215102  1
  Pt  Pt283  1  0.75792076  0.57700277  0.31736675  1
  Pt  Pt284  1  0.34655064  0.71708816  0.32145051  1
  Pt  Pt285  1  0.26865296  0.49811873  0.72869335  1
  Pt  Pt286  1  0.73130058  0.50190863  0.72872962  1
  Pt  Pt287  1  0.26869593  0.28290780  0.54359941  1
  Pt  Pt288  1  0.73727772  0.28246619  0.54583051  1
  Pt  Pt289  1  0.81368744  0.49806878  0.58597750  1
  Pt  Pt290  1  0.18625942  0.50187359  0.41399676  1
  Pt  Pt291  1  0.18627573  0.50185186  0.58606020  1
  Pt  Pt292  1  0.81373134  0.49811990  0.41393815  1
  Pt  Pt293  1  0.62592146  0.20361846  0.54607693  1
  Pt  Pt294  1  0.42112491  0.28253377  0.72861622  1
  Pt  Pt295  1  0.24207765  0.42297785  0.68263088  1
  Pt  Pt296  1  0.57782328  0.28295673  0.72214037  1
  Pt  Pt297  1  0.26860770  0.28278078  0.45626955  1
  Pt  Pt298  1  0.73740675  0.28244215  0.45384991  1
  Pt  Pt299  1  0.78711645  0.42306964  0.36797551  1
  Pt  Pt300  1  0.41765627  0.49806777  0.81468890  1
  Pt  Pt301  1  0.58235039  0.50191662  0.81467422  1
  Pt  Pt302  1  0.21288479  0.57696357  0.63201465  1
  Pt  Pt303  1  0.39699550  0.64579345  0.76601922  1
  Pt  Pt304  1  0.60304251  0.35431053  0.23397995  1
  Pt  Pt305  1  0.39699628  0.64576908  0.23401014  1
  Pt  Pt306  1  0.60302456  0.35422615  0.76595394  1
  Pt  Pt307  1  0.47075170  0.42296256  0.81471105  1
  Pt  Pt308  1  0.21284433  0.57697183  0.36801765  1
  Pt  Pt309  1  0.32137903  0.64574182  0.27778585  1
  Pt  Pt310  1  0.26874096  0.49802511  0.27132323  1
  Pt  Pt311  1  0.73127881  0.50188980  0.27135776  1
  Pt  Pt312  1  0.42123249  0.28234739  0.27133462  1
  Pt  Pt313  1  0.57804890  0.28258640  0.27720602  1
  Pt  Pt314  1  0.52924012  0.57701661  0.18527721  1
  Pt  Pt315  1  0.34158222  0.28240022  0.31736449  1
  Pt  Pt316  1  0.65384359  0.28260041  0.32093095  1
  Pt  Pt317  1  0.67864433  0.35435134  0.27772769  1
  Pt  Pt318  1  0.41765133  0.49800289  0.18531594  1
  Pt  Pt319  1  0.58231978  0.50196303  0.18538525  1
  Pt  Pt320  1  0.24215426  0.42298689  0.31727000  1
  Pt  Pt321  1  0.47075766  0.42301131  0.18527124  1
