# generated using pymatgen
data_Ni43HPt278
_symmetry_space_group_name_H-M   'P 1'
_cell_length_a   30.00000000
_cell_length_b   30.00000000
_cell_length_c   30.00000000
_cell_angle_alpha   90.00000000
_cell_angle_beta   90.00000000
_cell_angle_gamma   90.00000000
_symmetry_Int_Tables_number   1
_chemical_formula_structural   Ni43HPt278
_chemical_formula_sum   'Ni43 H1 Pt278'
_cell_volume   27000.00000000
_cell_formula_units_Z   1
loop_
 _symmetry_equiv_pos_site_id
 _symmetry_equiv_pos_as_xyz
  1  'x, y, z'
loop_
 _atom_site_type_symbol
 _atom_site_label
 _atom_site_symmetry_multiplicity
 _atom_site_fract_x
 _atom_site_fract_y
 _atom_site_fract_z
 _atom_site_occupancy
  Ni  Ni0  1  0.49977162  0.49991441  0.49982462  1
  Ni  Ni1  1  0.44741707  0.35109644  0.40871854  1
  Ni  Ni2  1  0.55326608  0.64861760  0.59182491  1
  Ni  Ni3  1  0.44743702  0.35110992  0.59121794  1
  Ni  Ni4  1  0.55263632  0.64892536  0.40901804  1
  Ni  Ni5  1  0.39482510  0.64871291  0.49996343  1
  Ni  Ni6  1  0.60528467  0.35102655  0.49999248  1
  Ni  Ni7  1  0.65784494  0.49990251  0.59098110  1
  Ni  Ni8  1  0.34202999  0.49996186  0.40882298  1
  Ni  Ni9  1  0.34199499  0.49993088  0.59113760  1
  Ni  Ni10  1  0.65791244  0.49995674  0.40877191  1
  Ni  Ni11  1  0.50002951  0.49998826  0.31766242  1
  Ni  Ni12  1  0.49985637  0.50000675  0.68226321  1
  Ni  Ni13  1  0.29113441  0.35225001  0.49994654  1
  Ni  Ni14  1  0.70885801  0.64784845  0.50078951  1
  Ni  Ni15  1  0.39570132  0.64767128  0.68104059  1
  Ni  Ni16  1  0.60431597  0.35229792  0.31900607  1
  Ni  Ni17  1  0.60436535  0.35246196  0.68093648  1
  Ni  Ni18  1  0.39563717  0.64760839  0.31902424  1
  Ni  Ni19  1  0.40137360  0.20416234  0.50009068  1
  Ni  Ni20  1  0.59871742  0.79536544  0.49998007  1
  Ni  Ni21  1  0.45059020  0.79595357  0.58536078  1
  Ni  Ni22  1  0.54926407  0.20409892  0.41453249  1
  Ni  Ni23  1  0.54931388  0.20400754  0.58543801  1
  Ni  Ni24  1  0.45070805  0.79597407  0.41450722  1
  Ni  Ni25  1  0.70473402  0.64658296  0.68419808  1
  Ni  Ni26  1  0.29471228  0.35482856  0.31525111  1
  Ni  Ni27  1  0.29473128  0.35489327  0.68465391  1
  Ni  Ni28  1  0.70517136  0.64508913  0.31549557  1
  Ni  Ni29  1  0.81190729  0.49448620  0.49994461  1
  Ni  Ni30  1  0.18808371  0.50566536  0.49998155  1
  Ni  Ni31  1  0.76265672  0.35495310  0.41458194  1
  Ni  Ni32  1  0.23738473  0.64509918  0.58541928  1
  Ni  Ni33  1  0.76276129  0.35498178  0.58542113  1
  Ni  Ni34  1  0.23751432  0.64515669  0.41462169  1
  Ni  Ni35  1  0.44255150  0.35495985  0.22986187  1
  Ni  Ni36  1  0.55712634  0.64557964  0.76997218  1
  Ni  Ni37  1  0.44252853  0.35493033  0.77008123  1
  Ni  Ni38  1  0.55743750  0.64515175  0.23005331  1
  Ni  Ni39  1  0.65599770  0.50615557  0.76984760  1
  Ni  Ni40  1  0.34405609  0.49439761  0.22990925  1
  Ni  Ni41  1  0.65590768  0.50568610  0.22984750  1
  Ni  Ni42  1  0.34405646  0.49442772  0.77010703  1
  H  H43  1  0.68827181  0.74305175  0.72298309  1
  Pt  Pt44  1  0.52652789  0.57486463  0.54602323  1
  Pt  Pt45  1  0.52652971  0.57506883  0.45402895  1
  Pt  Pt46  1  0.44695075  0.57503092  0.50003939  1
  Pt  Pt47  1  0.57911775  0.49923202  0.54550708  1
  Pt  Pt48  1  0.42027792  0.49995166  0.54591771  1
  Pt  Pt49  1  0.49989077  0.49985769  0.59190219  1
  Pt  Pt50  1  0.49994996  0.50000671  0.40799855  1
  Pt  Pt51  1  0.57958609  0.49985876  0.45377106  1
  Pt  Pt52  1  0.42029811  0.50000481  0.45399753  1
  Pt  Pt53  1  0.55296639  0.42479987  0.49986549  1
  Pt  Pt54  1  0.47344061  0.42486563  0.54591845  1
  Pt  Pt55  1  0.47340387  0.42492868  0.45388851  1
  Pt  Pt56  1  0.44663668  0.57550796  0.40763031  1
  Pt  Pt57  1  0.44657882  0.57537836  0.59245898  1
  Pt  Pt58  1  0.60664339  0.57505265  0.49989331  1
  Pt  Pt59  1  0.39322690  0.42452730  0.49991598  1
  Pt  Pt60  1  0.55333126  0.42451581  0.40733831  1
  Pt  Pt61  1  0.55328924  0.42418793  0.59248903  1
  Pt  Pt62  1  0.60605133  0.57397370  0.59068084  1
  Pt  Pt63  1  0.47325852  0.64957798  0.45368587  1
  Pt  Pt64  1  0.52585854  0.57504198  0.63755429  1
  Pt  Pt65  1  0.44642085  0.35046834  0.49991993  1
  Pt  Pt66  1  0.55359711  0.64938051  0.50028958  1
  Pt  Pt67  1  0.47333642  0.64946324  0.54648851  1
  Pt  Pt68  1  0.60623012  0.57513874  0.40886674  1
  Pt  Pt69  1  0.52688017  0.35048153  0.45363392  1
  Pt  Pt70  1  0.42044943  0.50052784  0.63749755  1
  Pt  Pt71  1  0.36788898  0.57503235  0.54638409  1
  Pt  Pt72  1  0.57936630  0.49925874  0.63739877  1
  Pt  Pt73  1  0.63203894  0.42465387  0.54631904  1
  Pt  Pt74  1  0.52595070  0.57514236  0.36246196  1
  Pt  Pt75  1  0.34108848  0.49935981  0.49995813  1
  Pt  Pt76  1  0.65881581  0.50041375  0.49991079  1
  Pt  Pt77  1  0.39377058  0.42481012  0.59114196  1
  Pt  Pt78  1  0.36788444  0.57512145  0.45367327  1
  Pt  Pt79  1  0.63202535  0.42476759  0.45351550  1
  Pt  Pt80  1  0.47404083  0.42482891  0.63759104  1
  Pt  Pt81  1  0.52671080  0.35026784  0.54630230  1
  Pt  Pt82  1  0.42052349  0.50058548  0.36244905  1
  Pt  Pt83  1  0.57946645  0.49945727  0.36229923  1
  Pt  Pt84  1  0.47405933  0.42489406  0.36232825  1
  Pt  Pt85  1  0.39376672  0.42482070  0.40869706  1
  Pt  Pt86  1  0.63573852  0.65078069  0.54590147  1
  Pt  Pt87  1  0.47101860  0.65139243  0.64051692  1
  Pt  Pt88  1  0.68821361  0.57761183  0.54507002  1
  Pt  Pt89  1  0.68833894  0.57794711  0.45498747  1
  Pt  Pt90  1  0.44490415  0.57775823  0.68556036  1
  Pt  Pt91  1  0.36378138  0.34845257  0.54511162  1
  Pt  Pt92  1  0.52904718  0.34840946  0.64056056  1
  Pt  Pt93  1  0.63629721  0.65150740  0.45536491  1
  Pt  Pt94  1  0.55503781  0.42225950  0.68561343  1
  Pt  Pt95  1  0.39286736  0.65155380  0.59540258  1
  Pt  Pt96  1  0.60723809  0.34841030  0.40454584  1
  Pt  Pt97  1  0.60720991  0.34833046  0.59546031  1
  Pt  Pt98  1  0.39282943  0.65155700  0.40458648  1
  Pt  Pt99  1  0.36675227  0.57786385  0.64048931  1
  Pt  Pt100  1  0.63318711  0.42223986  0.64046909  1
  Pt  Pt101  1  0.47099408  0.65155248  0.35955746  1
  Pt  Pt102  1  0.36381584  0.34843967  0.45485237  1
  Pt  Pt103  1  0.31167971  0.42212555  0.54508487  1
  Pt  Pt104  1  0.36680849  0.57781165  0.35952277  1
  Pt  Pt105  1  0.63320536  0.42211294  0.35940909  1
  Pt  Pt106  1  0.31170887  0.42212285  0.45484191  1
  Pt  Pt107  1  0.52900516  0.34849631  0.35953627  1
  Pt  Pt108  1  0.44503074  0.57779174  0.31447422  1
  Pt  Pt109  1  0.55503949  0.42212982  0.31423432  1
  Pt  Pt110  1  0.50006352  0.72570096  0.49996475  1
  Pt  Pt111  1  0.28704256  0.57523890  0.49999937  1
  Pt  Pt112  1  0.60652063  0.57532812  0.31556719  1
  Pt  Pt113  1  0.60621596  0.57569503  0.68377804  1
  Pt  Pt114  1  0.50002224  0.27417844  0.50004402  1
  Pt  Pt115  1  0.39347783  0.42466002  0.31553122  1
  Pt  Pt116  1  0.39349016  0.42468158  0.68438796  1
  Pt  Pt117  1  0.71291486  0.42474587  0.49994940  1
  Pt  Pt118  1  0.57930426  0.72120274  0.54679423  1
  Pt  Pt119  1  0.50026123  0.72130636  0.59177374  1
  Pt  Pt120  1  0.57937931  0.72149596  0.45406161  1
  Pt  Pt121  1  0.42028634  0.72151657  0.54562139  1
  Pt  Pt122  1  0.42029927  0.72149692  0.45431746  1
  Pt  Pt123  1  0.50041118  0.72159162  0.40818826  1
  Pt  Pt124  1  0.68380665  0.57393387  0.63486965  1
  Pt  Pt125  1  0.31776987  0.64892495  0.54559494  1
  Pt  Pt126  1  0.63055587  0.64903008  0.36519468  1
  Pt  Pt127  1  0.63115831  0.64974093  0.63593881  1
  Pt  Pt128  1  0.68404062  0.57355645  0.36494483  1
  Pt  Pt129  1  0.52486101  0.57362292  0.72684590  1
  Pt  Pt130  1  0.70895762  0.42656474  0.59181556  1
  Pt  Pt131  1  0.68235340  0.35101315  0.54562030  1
  Pt  Pt132  1  0.49961317  0.27835270  0.59189886  1
  Pt  Pt133  1  0.55170260  0.64928873  0.68092548  1
  Pt  Pt134  1  0.44834043  0.35101345  0.31923616  1
  Pt  Pt135  1  0.44833473  0.35092573  0.68074752  1
  Pt  Pt136  1  0.55169906  0.64906750  0.31940341  1
  Pt  Pt137  1  0.29095291  0.57347995  0.59184171  1
  Pt  Pt138  1  0.36936784  0.35089809  0.36486440  1
  Pt  Pt139  1  0.73540934  0.50090677  0.54614752  1
  Pt  Pt140  1  0.26462374  0.49904041  0.54625428  1
  Pt  Pt141  1  0.36940588  0.35091663  0.63511382  1
  Pt  Pt142  1  0.57760244  0.49928312  0.72669456  1
  Pt  Pt143  1  0.31766482  0.64901359  0.45435616  1
  Pt  Pt144  1  0.42229835  0.50081831  0.72687953  1
  Pt  Pt145  1  0.42066241  0.27849963  0.54627722  1
  Pt  Pt146  1  0.57971345  0.27835324  0.54562864  1
  Pt  Pt147  1  0.73534612  0.50097407  0.45363140  1
  Pt  Pt148  1  0.26464499  0.49905317  0.45374750  1
  Pt  Pt149  1  0.42064518  0.27844314  0.45371141  1
  Pt  Pt150  1  0.57974326  0.27846145  0.45442365  1
  Pt  Pt151  1  0.47500478  0.42646907  0.72693922  1
  Pt  Pt152  1  0.65763747  0.49938458  0.68049849  1
  Pt  Pt153  1  0.34223110  0.50092134  0.31932366  1
  Pt  Pt154  1  0.34216679  0.50093467  0.68065881  1
  Pt  Pt155  1  0.65775420  0.49907422  0.31925954  1
  Pt  Pt156  1  0.31593005  0.42645174  0.63507595  1
  Pt  Pt157  1  0.70900279  0.42646860  0.40811307  1
  Pt  Pt158  1  0.52505258  0.57356343  0.27308238  1
  Pt  Pt159  1  0.49958323  0.27842773  0.40814375  1
  Pt  Pt160  1  0.68234950  0.35098046  0.45441123  1
  Pt  Pt161  1  0.29096566  0.57345565  0.40814715  1
  Pt  Pt162  1  0.31592884  0.42640506  0.36484814  1
  Pt  Pt163  1  0.57765464  0.49913034  0.27304103  1
  Pt  Pt164  1  0.42237479  0.50089597  0.27312293  1
  Pt  Pt165  1  0.47499154  0.42648219  0.27297036  1
  Pt  Pt166  1  0.65748797  0.73719320  0.50102199  1
  Pt  Pt167  1  0.58075515  0.72696523  0.63942740  1
  Pt  Pt168  1  0.58018109  0.72685769  0.36129376  1
  Pt  Pt169  1  0.42151799  0.73831172  0.63668317  1
  Pt  Pt170  1  0.77699264  0.56924943  0.49994762  1
  Pt  Pt171  1  0.33988727  0.72647826  0.49999928  1
  Pt  Pt172  1  0.42119659  0.73826141  0.36347152  1
  Pt  Pt173  1  0.71740756  0.65341891  0.60285708  1
  Pt  Pt174  1  0.28261588  0.34616883  0.39645535  1
  Pt  Pt175  1  0.28267420  0.34628394  0.60343287  1
  Pt  Pt176  1  0.71720569  0.65378544  0.39672373  1
  Pt  Pt177  1  0.48071274  0.65364135  0.74020617  1
  Pt  Pt178  1  0.30176204  0.65353364  0.36342129  1
  Pt  Pt179  1  0.30160895  0.65377138  0.63645607  1
  Pt  Pt180  1  0.74042915  0.50032152  0.63876409  1
  Pt  Pt181  1  0.25928891  0.49999176  0.63896927  1
  Pt  Pt182  1  0.48100157  0.65370827  0.26003161  1
  Pt  Pt183  1  0.36155777  0.56923801  0.73978395  1
  Pt  Pt184  1  0.41976615  0.27305519  0.63897774  1
  Pt  Pt185  1  0.57877715  0.26173221  0.63656602  1
  Pt  Pt186  1  0.63863135  0.43112780  0.74016713  1
  Pt  Pt187  1  0.34240224  0.26191928  0.49999485  1
  Pt  Pt188  1  0.66043743  0.27316768  0.50001244  1
  Pt  Pt189  1  0.51896165  0.34623064  0.74022720  1
  Pt  Pt190  1  0.69840521  0.34621469  0.36349254  1
  Pt  Pt191  1  0.69864878  0.34627473  0.63653657  1
  Pt  Pt192  1  0.74062012  0.49998869  0.36097074  1
  Pt  Pt193  1  0.25934693  0.49997952  0.36100942  1
  Pt  Pt194  1  0.41972543  0.27300154  0.36106038  1
  Pt  Pt195  1  0.57872060  0.26187093  0.36353980  1
  Pt  Pt196  1  0.22279420  0.43080147  0.49997071  1
  Pt  Pt197  1  0.51895765  0.34625237  0.25987005  1
  Pt  Pt198  1  0.50000832  0.50001473  0.22226162  1
  Pt  Pt199  1  0.49999497  0.50003281  0.77774592  1
  Pt  Pt200  1  0.36157234  0.56921820  0.26009322  1
  Pt  Pt201  1  0.63853890  0.43080676  0.25991479  1
  Pt  Pt202  1  0.33836324  0.72852837  0.40721917  1
  Pt  Pt203  1  0.66092927  0.72858283  0.40691292  1
  Pt  Pt204  1  0.33852369  0.72865574  0.59274109  1
  Pt  Pt205  1  0.66108978  0.72764990  0.59480327  1
  Pt  Pt206  1  0.50053694  0.72855585  0.31374165  1
  Pt  Pt207  1  0.50061607  0.72813193  0.68633393  1
  Pt  Pt208  1  0.33886701  0.27144573  0.40637163  1
  Pt  Pt209  1  0.23095673  0.42428615  0.40636240  1
  Pt  Pt210  1  0.33893526  0.27144430  0.59363121  1
  Pt  Pt211  1  0.28440694  0.57565315  0.31367451  1
  Pt  Pt212  1  0.23085020  0.42431599  0.59358858  1
  Pt  Pt213  1  0.28432865  0.57570072  0.68626373  1
  Pt  Pt214  1  0.76913062  0.57569965  0.40626887  1
  Pt  Pt215  1  0.76922016  0.57573628  0.59335626  1
  Pt  Pt216  1  0.44656666  0.57565387  0.22020515  1
  Pt  Pt217  1  0.44635950  0.57561448  0.77985131  1
  Pt  Pt218  1  0.49946564  0.27148083  0.31387849  1
  Pt  Pt219  1  0.49949279  0.27150641  0.68632866  1
  Pt  Pt220  1  0.66158216  0.27140933  0.40727369  1
  Pt  Pt221  1  0.66163710  0.27153981  0.59271705  1
  Pt  Pt222  1  0.55352222  0.42440582  0.22008017  1
  Pt  Pt223  1  0.71559030  0.42431223  0.31367825  1
  Pt  Pt224  1  0.55352084  0.42454459  0.77979008  1
  Pt  Pt225  1  0.71553232  0.42462225  0.68625892  1
  Pt  Pt226  1  0.52539181  0.80420897  0.54397511  1
  Pt  Pt227  1  0.47464451  0.19542595  0.54394779  1
  Pt  Pt228  1  0.52537573  0.80441200  0.45605841  1
  Pt  Pt229  1  0.55073438  0.19538520  0.49998695  1
  Pt  Pt230  1  0.44928687  0.80442010  0.50002402  1
  Pt  Pt231  1  0.63479126  0.64991716  0.73392638  1
  Pt  Pt232  1  0.60945796  0.57792921  0.77725221  1
  Pt  Pt233  1  0.68559073  0.57815874  0.73339826  1
  Pt  Pt234  1  0.36483641  0.35063322  0.73406867  1
  Pt  Pt235  1  0.79559088  0.42256071  0.54394112  1
  Pt  Pt236  1  0.47462653  0.19557221  0.45608082  1
  Pt  Pt237  1  0.79558253  0.42254835  0.45601221  1
  Pt  Pt238  1  0.39019170  0.42242904  0.77800396  1
  Pt  Pt239  1  0.77032144  0.35077581  0.49999705  1
  Pt  Pt240  1  0.22987076  0.64936525  0.49999477  1
  Pt  Pt241  1  0.68587994  0.57765076  0.26595539  1
  Pt  Pt242  1  0.20437055  0.57760393  0.54393532  1
  Pt  Pt243  1  0.63512729  0.64937908  0.26610282  1
  Pt  Pt244  1  0.31412938  0.42243252  0.73396847  1
  Pt  Pt245  1  0.20439137  0.57761684  0.45601737  1
  Pt  Pt246  1  0.36482479  0.35061962  0.26587194  1
  Pt  Pt247  1  0.60983577  0.57767780  0.22193004  1
  Pt  Pt248  1  0.31412163  0.42241322  0.26595800  1
  Pt  Pt249  1  0.39020162  0.42241938  0.22196149  1
  Pt  Pt250  1  0.65967283  0.71987527  0.68568868  1
  Pt  Pt251  1  0.73193722  0.71763852  0.54432547  1
  Pt  Pt252  1  0.73117972  0.71692835  0.45687558  1
  Pt  Pt253  1  0.52310719  0.79647311  0.36794090  1
  Pt  Pt254  1  0.37416866  0.79629635  0.45401450  1
  Pt  Pt255  1  0.57861707  0.71849544  0.72896285  1
  Pt  Pt256  1  0.60291426  0.79609830  0.58596890  1
  Pt  Pt257  1  0.39708376  0.20351641  0.41408531  1
  Pt  Pt258  1  0.39722572  0.20358947  0.58603866  1
  Pt  Pt259  1  0.60273823  0.79645149  0.41402336  1
  Pt  Pt260  1  0.52316146  0.79603166  0.63201344  1
  Pt  Pt261  1  0.75778152  0.57770793  0.68231304  1
  Pt  Pt262  1  0.34669688  0.71704864  0.67843807  1
  Pt  Pt263  1  0.42213850  0.71719225  0.72241088  1
  Pt  Pt264  1  0.65860455  0.71742968  0.31769941  1
  Pt  Pt265  1  0.78164680  0.64566005  0.45629281  1
  Pt  Pt266  1  0.37397964  0.79641450  0.54588424  1
  Pt  Pt267  1  0.57902601  0.71757366  0.27156945  1
  Pt  Pt268  1  0.47670845  0.20342095  0.36803822  1
  Pt  Pt269  1  0.62585338  0.20361259  0.45400263  1
  Pt  Pt270  1  0.78227292  0.64596246  0.54351974  1
  Pt  Pt271  1  0.26270293  0.71742263  0.54607878  1
  Pt  Pt272  1  0.32131023  0.64578741  0.72214373  1
  Pt  Pt273  1  0.21818433  0.35422440  0.45629955  1
  Pt  Pt274  1  0.26262417  0.71764395  0.45415447  1
  Pt  Pt275  1  0.42221268  0.71708132  0.27778238  1
  Pt  Pt276  1  0.47687423  0.20351097  0.63203432  1
  Pt  Pt277  1  0.34130346  0.28251998  0.68273860  1
  Pt  Pt278  1  0.65346057  0.28308527  0.67849928  1
  Pt  Pt279  1  0.78709174  0.42315588  0.63205142  1
  Pt  Pt280  1  0.21824726  0.35421693  0.54363627  1
  Pt  Pt281  1  0.52918048  0.57716566  0.81454232  1
  Pt  Pt282  1  0.67861603  0.35449945  0.72209773  1
  Pt  Pt283  1  0.75790919  0.57696270  0.31723956  1
  Pt  Pt284  1  0.34654643  0.71699030  0.32144465  1
  Pt  Pt285  1  0.26858318  0.49810175  0.72872781  1
  Pt  Pt286  1  0.73128435  0.50251367  0.72840895  1
  Pt  Pt287  1  0.26858783  0.28281240  0.54371726  1
  Pt  Pt288  1  0.73753617  0.28262755  0.54598281  1
  Pt  Pt289  1  0.81375851  0.49818214  0.58609716  1
  Pt  Pt290  1  0.18629595  0.50188229  0.41398532  1
  Pt  Pt291  1  0.18622828  0.50186859  0.58602130  1
  Pt  Pt292  1  0.81375012  0.49818391  0.41383673  1
  Pt  Pt293  1  0.62592774  0.20359708  0.54593734  1
  Pt  Pt294  1  0.42104764  0.28245962  0.72866959  1
  Pt  Pt295  1  0.24200295  0.42296743  0.68268083  1
  Pt  Pt296  1  0.57785358  0.28297906  0.72226273  1
  Pt  Pt297  1  0.26857458  0.28283763  0.45632188  1
  Pt  Pt298  1  0.73752632  0.28259509  0.45404233  1
  Pt  Pt299  1  0.78717684  0.42303264  0.36792703  1
  Pt  Pt300  1  0.41764854  0.49804265  0.81471003  1
  Pt  Pt301  1  0.58245600  0.50225436  0.81442250  1
  Pt  Pt302  1  0.21278730  0.57700745  0.63199870  1
  Pt  Pt303  1  0.39677920  0.64585326  0.76613960  1
  Pt  Pt304  1  0.60298734  0.35422243  0.23398939  1
  Pt  Pt305  1  0.39700685  0.64578570  0.23397585  1
  Pt  Pt306  1  0.60300537  0.35445320  0.76585326  1
  Pt  Pt307  1  0.47074292  0.42304194  0.81470880  1
  Pt  Pt308  1  0.21283539  0.57700286  0.36798057  1
  Pt  Pt309  1  0.32130244  0.64573644  0.27765920  1
  Pt  Pt310  1  0.26861386  0.49807416  0.27126359  1
  Pt  Pt311  1  0.73133596  0.50190615  0.27121449  1
  Pt  Pt312  1  0.42117292  0.28256784  0.27135247  1
  Pt  Pt313  1  0.57774455  0.28286797  0.27775905  1
  Pt  Pt314  1  0.52929717  0.57703366  0.18530784  1
  Pt  Pt315  1  0.34132884  0.28253451  0.31724348  1
  Pt  Pt316  1  0.65340918  0.28294505  0.32147791  1
  Pt  Pt317  1  0.67862071  0.35426306  0.27780889  1
  Pt  Pt318  1  0.41765525  0.49811929  0.18533086  1
  Pt  Pt319  1  0.58233483  0.50201919  0.18526547  1
  Pt  Pt320  1  0.24201864  0.42295673  0.31724819  1
  Pt  Pt321  1  0.47072908  0.42306328  0.18520329  1
