# generated using pymatgen
data_Ni43HPt278
_symmetry_space_group_name_H-M   'P 1'
_cell_length_a   30.00000000
_cell_length_b   30.00000000
_cell_length_c   30.00000000
_cell_angle_alpha   90.00000000
_cell_angle_beta   90.00000000
_cell_angle_gamma   90.00000000
_symmetry_Int_Tables_number   1
_chemical_formula_structural   Ni43HPt278
_chemical_formula_sum   'Ni43 H1 Pt278'
_cell_volume   27000.00000000
_cell_formula_units_Z   1
loop_
 _symmetry_equiv_pos_site_id
 _symmetry_equiv_pos_as_xyz
  1  'x, y, z'
loop_
 _atom_site_type_symbol
 _atom_site_label
 _atom_site_symmetry_multiplicity
 _atom_site_fract_x
 _atom_site_fract_y
 _atom_site_fract_z
 _atom_site_occupancy
  Ni  Ni0  1  0.49977311  0.50017758  0.50004835  1
  Ni  Ni1  1  0.44732316  0.35113245  0.40880406  1
  Ni  Ni2  1  0.55257670  0.64889658  0.59126745  1
  Ni  Ni3  1  0.44734984  0.35109814  0.59132814  1
  Ni  Ni4  1  0.55253524  0.64877532  0.40882746  1
  Ni  Ni5  1  0.39472142  0.64881958  0.50001649  1
  Ni  Ni6  1  0.60495545  0.35124883  0.49997330  1
  Ni  Ni7  1  0.65786619  0.50015390  0.59116658  1
  Ni  Ni8  1  0.34203931  0.49995808  0.40880189  1
  Ni  Ni9  1  0.34199959  0.49992534  0.59117144  1
  Ni  Ni10  1  0.65845729  0.49933431  0.40915835  1
  Ni  Ni11  1  0.50025476  0.49999495  0.31774394  1
  Ni  Ni12  1  0.49998457  0.49994259  0.68232158  1
  Ni  Ni13  1  0.29104633  0.35236010  0.50003154  1
  Ni  Ni14  1  0.70896009  0.64760413  0.49998784  1
  Ni  Ni15  1  0.39557795  0.64759042  0.68098221  1
  Ni  Ni16  1  0.60512208  0.35248486  0.31930456  1
  Ni  Ni17  1  0.60440207  0.35242419  0.68088443  1
  Ni  Ni18  1  0.39560610  0.64762554  0.31903757  1
  Ni  Ni19  1  0.40141930  0.20402713  0.49993343  1
  Ni  Ni20  1  0.59860239  0.79597278  0.50003022  1
  Ni  Ni21  1  0.45069489  0.79602807  0.58544244  1
  Ni  Ni22  1  0.54930206  0.20402693  0.41447867  1
  Ni  Ni23  1  0.54937826  0.20389016  0.58533129  1
  Ni  Ni24  1  0.45075051  0.79593129  0.41452427  1
  Ni  Ni25  1  0.70530040  0.64516392  0.68462125  1
  Ni  Ni26  1  0.29468193  0.35485545  0.31522257  1
  Ni  Ni27  1  0.29472007  0.35486214  0.68467868  1
  Ni  Ni28  1  0.70523469  0.64529116  0.31519615  1
  Ni  Ni29  1  0.81209398  0.49476401  0.49979943  1
  Ni  Ni30  1  0.18802660  0.50568842  0.49994443  1
  Ni  Ni31  1  0.76280796  0.35591079  0.41333187  1
  Ni  Ni32  1  0.23734475  0.64514019  0.58542366  1
  Ni  Ni33  1  0.76259983  0.35499926  0.58487311  1
  Ni  Ni34  1  0.23742827  0.64511759  0.41455698  1
  Ni  Ni35  1  0.44269597  0.35490282  0.23007117  1
  Ni  Ni36  1  0.55742025  0.64516168  0.77003039  1
  Ni  Ni37  1  0.44252201  0.35484202  0.77016036  1
  Ni  Ni38  1  0.55740094  0.64513088  0.22982855  1
  Ni  Ni39  1  0.65598781  0.50575171  0.77014099  1
  Ni  Ni40  1  0.34413578  0.49430749  0.22983862  1
  Ni  Ni41  1  0.65574816  0.50541699  0.23016862  1
  Ni  Ni42  1  0.34409244  0.49431355  0.77017518  1
  H  H43  1  0.83945260  0.40409283  0.35960795  1
  Pt  Pt44  1  0.52649324  0.57514973  0.54601761  1
  Pt  Pt45  1  0.52657753  0.57509265  0.45402693  1
  Pt  Pt46  1  0.44693619  0.57505843  0.49999557  1
  Pt  Pt47  1  0.57948967  0.50005642  0.54611805  1
  Pt  Pt48  1  0.42024814  0.50002448  0.54591155  1
  Pt  Pt49  1  0.49989992  0.50001389  0.59195484  1
  Pt  Pt50  1  0.50001149  0.50000225  0.40809045  1
  Pt  Pt51  1  0.57953536  0.49995544  0.45426594  1
  Pt  Pt52  1  0.42027566  0.50002427  0.45400129  1
  Pt  Pt53  1  0.55220986  0.42516272  0.50054557  1
  Pt  Pt54  1  0.47323400  0.42495816  0.54607931  1
  Pt  Pt55  1  0.47313930  0.42492624  0.45400856  1
  Pt  Pt56  1  0.44667285  0.57544263  0.40755050  1
  Pt  Pt57  1  0.44654199  0.57549507  0.59240604  1
  Pt  Pt58  1  0.60669965  0.57546323  0.50010470  1
  Pt  Pt59  1  0.39305208  0.42455365  0.49993609  1
  Pt  Pt60  1  0.55311743  0.42447300  0.40786932  1
  Pt  Pt61  1  0.55322737  0.42449106  0.59278727  1
  Pt  Pt62  1  0.60615745  0.57518324  0.59126788  1
  Pt  Pt63  1  0.47326994  0.64956651  0.45361190  1
  Pt  Pt64  1  0.52582563  0.57511129  0.63759410  1
  Pt  Pt65  1  0.44625379  0.35046115  0.50008024  1
  Pt  Pt66  1  0.55356807  0.64955640  0.50007080  1
  Pt  Pt67  1  0.47319279  0.64957793  0.54639220  1
  Pt  Pt68  1  0.60627123  0.57498340  0.40889429  1
  Pt  Pt69  1  0.52655611  0.35042392  0.45374834  1
  Pt  Pt70  1  0.42049306  0.50060014  0.63751712  1
  Pt  Pt71  1  0.36781340  0.57505596  0.54637618  1
  Pt  Pt72  1  0.57939289  0.49945276  0.63763566  1
  Pt  Pt73  1  0.63182629  0.42494179  0.54644456  1
  Pt  Pt74  1  0.52596400  0.57510654  0.36242973  1
  Pt  Pt75  1  0.34103900  0.49939290  0.49996942  1
  Pt  Pt76  1  0.65880956  0.50063296  0.50007868  1
  Pt  Pt77  1  0.39383735  0.42477606  0.59119288  1
  Pt  Pt78  1  0.36790685  0.57510894  0.45363948  1
  Pt  Pt79  1  0.63109954  0.42472862  0.45434261  1
  Pt  Pt80  1  0.47394863  0.42489290  0.63772357  1
  Pt  Pt81  1  0.52655170  0.35040598  0.54658984  1
  Pt  Pt82  1  0.42062429  0.50053707  0.36241611  1
  Pt  Pt83  1  0.57965211  0.49934042  0.36271995  1
  Pt  Pt84  1  0.47417743  0.42487418  0.36244949  1
  Pt  Pt85  1  0.39367462  0.42486152  0.40866735  1
  Pt  Pt86  1  0.63623463  0.65160008  0.54510802  1
  Pt  Pt87  1  0.47094639  0.65157661  0.64052451  1
  Pt  Pt88  1  0.68820964  0.57785749  0.54515728  1
  Pt  Pt89  1  0.68818371  0.57773425  0.45498827  1
  Pt  Pt90  1  0.44496319  0.57780778  0.68557835  1
  Pt  Pt91  1  0.36369402  0.34836119  0.54511593  1
  Pt  Pt92  1  0.52901591  0.34837673  0.64067226  1
  Pt  Pt93  1  0.63622825  0.65151420  0.45485067  1
  Pt  Pt94  1  0.55505148  0.42215238  0.68568150  1
  Pt  Pt95  1  0.39279461  0.65154558  0.59539828  1
  Pt  Pt96  1  0.60703155  0.34844023  0.40474571  1
  Pt  Pt97  1  0.60716349  0.34847616  0.59535816  1
  Pt  Pt98  1  0.39282176  0.65152780  0.40462256  1
  Pt  Pt99  1  0.36678092  0.57779256  0.64049647  1
  Pt  Pt100  1  0.63322234  0.42219285  0.64043872  1
  Pt  Pt101  1  0.47095293  0.65156131  0.35945973  1
  Pt  Pt102  1  0.36369253  0.34842290  0.45487071  1
  Pt  Pt103  1  0.31181660  0.42219306  0.54510841  1
  Pt  Pt104  1  0.36683724  0.57777272  0.35954069  1
  Pt  Pt105  1  0.63349536  0.42238552  0.36059027  1
  Pt  Pt106  1  0.31157205  0.42212745  0.45480555  1
  Pt  Pt107  1  0.52917416  0.34841582  0.35945983  1
  Pt  Pt108  1  0.44502589  0.57780604  0.31442410  1
  Pt  Pt109  1  0.55544698  0.42214625  0.31467745  1
  Pt  Pt110  1  0.50003374  0.72578440  0.50002470  1
  Pt  Pt111  1  0.28703524  0.57524156  0.50001548  1
  Pt  Pt112  1  0.60642135  0.57523471  0.31567228  1
  Pt  Pt113  1  0.60646551  0.57531229  0.68439041  1
  Pt  Pt114  1  0.49991037  0.27422956  0.50000759  1
  Pt  Pt115  1  0.39352362  0.42465837  0.31555094  1
  Pt  Pt116  1  0.39353470  0.42464047  0.68444457  1
  Pt  Pt117  1  0.71249287  0.42509329  0.49943226  1
  Pt  Pt118  1  0.57938303  0.72155491  0.54627680  1
  Pt  Pt119  1  0.50037404  0.72157120  0.59186562  1
  Pt  Pt120  1  0.57937249  0.72146804  0.45378479  1
  Pt  Pt121  1  0.42031108  0.72150337  0.54563068  1
  Pt  Pt122  1  0.42028199  0.72151298  0.45440611  1
  Pt  Pt123  1  0.50033677  0.72159837  0.40812886  1
  Pt  Pt124  1  0.68401392  0.57360051  0.63515345  1
  Pt  Pt125  1  0.31763340  0.64895232  0.54563934  1
  Pt  Pt126  1  0.63063909  0.64904738  0.36488848  1
  Pt  Pt127  1  0.63061571  0.64913947  0.63510377  1
  Pt  Pt128  1  0.68387670  0.57364540  0.36513321  1
  Pt  Pt129  1  0.52499192  0.57350294  0.72694529  1
  Pt  Pt130  1  0.70886037  0.42657036  0.59160179  1
  Pt  Pt131  1  0.68222528  0.35121387  0.54525935  1
  Pt  Pt132  1  0.49965811  0.27839742  0.59186447  1
  Pt  Pt133  1  0.55163959  0.64904767  0.68071675  1
  Pt  Pt134  1  0.44838404  0.35097907  0.31929844  1
  Pt  Pt135  1  0.44828356  0.35094458  0.68085050  1
  Pt  Pt136  1  0.55157423  0.64900645  0.31924141  1
  Pt  Pt137  1  0.29095522  0.57347502  0.59187542  1
  Pt  Pt138  1  0.36932231  0.35090922  0.36485974  1
  Pt  Pt139  1  0.73531415  0.50106855  0.54613224  1
  Pt  Pt140  1  0.26461584  0.49905794  0.54620359  1
  Pt  Pt141  1  0.36939361  0.35088880  0.63513483  1
  Pt  Pt142  1  0.57762913  0.49910632  0.72694748  1
  Pt  Pt143  1  0.31769430  0.64898587  0.45441976  1
  Pt  Pt144  1  0.42236105  0.50087684  0.72686606  1
  Pt  Pt145  1  0.42060897  0.27842510  0.54629535  1
  Pt  Pt146  1  0.57968772  0.27857563  0.54558413  1
  Pt  Pt147  1  0.73566993  0.50100750  0.45366538  1
  Pt  Pt148  1  0.26457709  0.49906944  0.45371506  1
  Pt  Pt149  1  0.42056935  0.27845549  0.45376632  1
  Pt  Pt150  1  0.57957203  0.27841678  0.45434089  1
  Pt  Pt151  1  0.47501818  0.42645770  0.72705515  1
  Pt  Pt152  1  0.65768654  0.49908309  0.68069529  1
  Pt  Pt153  1  0.34235918  0.50086953  0.31924182  1
  Pt  Pt154  1  0.34224432  0.50089829  0.68072240  1
  Pt  Pt155  1  0.65808212  0.49905593  0.31988225  1
  Pt  Pt156  1  0.31593115  0.42644090  0.63512413  1
  Pt  Pt157  1  0.71013220  0.42631787  0.40776980  1
  Pt  Pt158  1  0.52503031  0.57352915  0.27302874  1
  Pt  Pt159  1  0.49953598  0.27845925  0.40810432  1
  Pt  Pt160  1  0.68226052  0.35143227  0.45395575  1
  Pt  Pt161  1  0.29100906  0.57349481  0.40814682  1
  Pt  Pt162  1  0.31590461  0.42640377  0.36482726  1
  Pt  Pt163  1  0.57793316  0.49911848  0.27326599  1
  Pt  Pt164  1  0.42249773  0.50088786  0.27311293  1
  Pt  Pt165  1  0.47524276  0.42655763  0.27323760  1
  Pt  Pt166  1  0.65758621  0.73829070  0.49995127  1
  Pt  Pt167  1  0.58021711  0.72691897  0.63894735  1
  Pt  Pt168  1  0.58009785  0.72645534  0.36130392  1
  Pt  Pt169  1  0.42122252  0.73834985  0.63651663  1
  Pt  Pt170  1  0.77725421  0.56941481  0.50012482  1
  Pt  Pt171  1  0.33963321  0.72673804  0.50002387  1
  Pt  Pt172  1  0.42117453  0.73816914  0.36355446  1
  Pt  Pt173  1  0.71729008  0.65373293  0.60338319  1
  Pt  Pt174  1  0.28254251  0.34617930  0.39640014  1
  Pt  Pt175  1  0.28268625  0.34631028  0.60346517  1
  Pt  Pt176  1  0.71758093  0.65368365  0.39634478  1
  Pt  Pt177  1  0.48099959  0.65369157  0.74009750  1
  Pt  Pt178  1  0.30167804  0.65371574  0.36348684  1
  Pt  Pt179  1  0.30151919  0.65368190  0.63660208  1
  Pt  Pt180  1  0.74060574  0.50002327  0.63886339  1
  Pt  Pt181  1  0.25926236  0.49997028  0.63909639  1
  Pt  Pt182  1  0.48101907  0.65382613  0.25983447  1
  Pt  Pt183  1  0.36145445  0.56918535  0.74006714  1
  Pt  Pt184  1  0.41979766  0.27308773  0.63895861  1
  Pt  Pt185  1  0.57880384  0.26146757  0.63646272  1
  Pt  Pt186  1  0.63863800  0.43084059  0.74019236  1
  Pt  Pt187  1  0.34236569  0.26170130  0.50008528  1
  Pt  Pt188  1  0.66024791  0.27359283  0.49971377  1
  Pt  Pt189  1  0.51897561  0.34620780  0.74021355  1
  Pt  Pt190  1  0.69778896  0.34610064  0.36335260  1
  Pt  Pt191  1  0.69869815  0.34626690  0.63631611  1
  Pt  Pt192  1  0.74128812  0.49964175  0.36101873  1
  Pt  Pt193  1  0.25939979  0.49997591  0.36100767  1
  Pt  Pt194  1  0.41969159  0.27315127  0.36108888  1
  Pt  Pt195  1  0.57865719  0.26184565  0.36345451  1
  Pt  Pt196  1  0.22275285  0.43083074  0.50001308  1
  Pt  Pt197  1  0.51917836  0.34651481  0.26000602  1
  Pt  Pt198  1  0.50014716  0.50003542  0.22226120  1
  Pt  Pt199  1  0.49998968  0.49999690  0.77792988  1
  Pt  Pt200  1  0.36154764  0.56916171  0.25997503  1
  Pt  Pt201  1  0.63895986  0.43067208  0.26130249  1
  Pt  Pt202  1  0.33844585  0.72848804  0.40731145  1
  Pt  Pt203  1  0.66118087  0.72853625  0.40629046  1
  Pt  Pt204  1  0.33839586  0.72834642  0.59270726  1
  Pt  Pt205  1  0.66104598  0.72859792  0.59360106  1
  Pt  Pt206  1  0.50047337  0.72863262  0.31369350  1
  Pt  Pt207  1  0.50054738  0.72852661  0.68626706  1
  Pt  Pt208  1  0.33890936  0.27144518  0.40642232  1
  Pt  Pt209  1  0.23088971  0.42430831  0.40637775  1
  Pt  Pt210  1  0.33885861  0.27139527  0.59369294  1
  Pt  Pt211  1  0.28456166  0.57561519  0.31371835  1
  Pt  Pt212  1  0.23104505  0.42433525  0.59359192  1
  Pt  Pt213  1  0.28445900  0.57568112  0.68629397  1
  Pt  Pt214  1  0.76889922  0.57554915  0.40672352  1
  Pt  Pt215  1  0.76905399  0.57579972  0.59356868  1
  Pt  Pt216  1  0.44651367  0.57562751  0.22016383  1
  Pt  Pt217  1  0.44651055  0.57556703  0.77980941  1
  Pt  Pt218  1  0.49933880  0.27151037  0.31364739  1
  Pt  Pt219  1  0.49949378  0.27141700  0.68623007  1
  Pt  Pt220  1  0.66135957  0.27146550  0.40711523  1
  Pt  Pt221  1  0.66164887  0.27167698  0.59245600  1
  Pt  Pt222  1  0.55393575  0.42457188  0.22042351  1
  Pt  Pt223  1  0.71634995  0.42406098  0.31502974  1
  Pt  Pt224  1  0.55354645  0.42440106  0.77982141  1
  Pt  Pt225  1  0.71547838  0.42440347  0.68612959  1
  Pt  Pt226  1  0.52536559  0.80449445  0.54392693  1
  Pt  Pt227  1  0.47467587  0.19549777  0.54387281  1
  Pt  Pt228  1  0.52538319  0.80440446  0.45601946  1
  Pt  Pt229  1  0.55077119  0.19561541  0.49992257  1
  Pt  Pt230  1  0.44926475  0.80443573  0.49997252  1
  Pt  Pt231  1  0.63509395  0.64939871  0.73390467  1
  Pt  Pt232  1  0.60981130  0.57765461  0.77795608  1
  Pt  Pt233  1  0.68588481  0.57766693  0.73397254  1
  Pt  Pt234  1  0.36478630  0.35056505  0.73413580  1
  Pt  Pt235  1  0.79501083  0.42285015  0.54345312  1
  Pt  Pt236  1  0.47464840  0.19558032  0.45597832  1
  Pt  Pt237  1  0.79571286  0.42298120  0.45575655  1
  Pt  Pt238  1  0.39018139  0.42234330  0.77803033  1
  Pt  Pt239  1  0.76990886  0.35113105  0.49935195  1
  Pt  Pt240  1  0.22980502  0.64932506  0.49995817  1
  Pt  Pt241  1  0.68572833  0.57746164  0.26629486  1
  Pt  Pt242  1  0.20435760  0.57760708  0.54390507  1
  Pt  Pt243  1  0.63511708  0.64934346  0.26602304  1
  Pt  Pt244  1  0.31417769  0.42238994  0.73395676  1
  Pt  Pt245  1  0.20442704  0.57756792  0.45600977  1
  Pt  Pt246  1  0.36486270  0.35060108  0.26594856  1
  Pt  Pt247  1  0.60973597  0.57757306  0.22209036  1
  Pt  Pt248  1  0.31410880  0.42236163  0.26590985  1
  Pt  Pt249  1  0.39032922  0.42238338  0.22209591  1
  Pt  Pt250  1  0.65866985  0.71757895  0.68271365  1
  Pt  Pt251  1  0.73130847  0.71717552  0.54363431  1
  Pt  Pt252  1  0.73130660  0.71702514  0.45628735  1
  Pt  Pt253  1  0.52334855  0.79641911  0.36790796  1
  Pt  Pt254  1  0.37410997  0.79635227  0.45405938  1
  Pt  Pt255  1  0.57890324  0.71759622  0.72867032  1
  Pt  Pt256  1  0.60276662  0.79646145  0.58603811  1
  Pt  Pt257  1  0.39720920  0.20357687  0.41392147  1
  Pt  Pt258  1  0.39726582  0.20357444  0.58599669  1
  Pt  Pt259  1  0.60282407  0.79627605  0.41398464  1
  Pt  Pt260  1  0.52311314  0.79646767  0.63201800  1
  Pt  Pt261  1  0.75795846  0.57702538  0.68265855  1
  Pt  Pt262  1  0.34657428  0.71702072  0.67852259  1
  Pt  Pt263  1  0.42222265  0.71702597  0.72219012  1
  Pt  Pt264  1  0.65855648  0.71763929  0.31727412  1
  Pt  Pt265  1  0.78191120  0.64590008  0.45631891  1
  Pt  Pt266  1  0.37416932  0.79629719  0.54602551  1
  Pt  Pt267  1  0.57888268  0.71746166  0.27141814  1
  Pt  Pt268  1  0.47681622  0.20357912  0.36790224  1
  Pt  Pt269  1  0.62593098  0.20365379  0.45399911  1
  Pt  Pt270  1  0.78189042  0.64597820  0.54371105  1
  Pt  Pt271  1  0.26247060  0.71746457  0.54596193  1
  Pt  Pt272  1  0.32135679  0.64574617  0.72228647  1
  Pt  Pt273  1  0.21822311  0.35423281  0.45635028  1
  Pt  Pt274  1  0.26255267  0.71746873  0.45400349  1
  Pt  Pt275  1  0.42215350  0.71708207  0.27781901  1
  Pt  Pt276  1  0.47690699  0.20353341  0.63194326  1
  Pt  Pt277  1  0.34133744  0.28249429  0.68275727  1
  Pt  Pt278  1  0.65343404  0.28308876  0.67827799  1
  Pt  Pt279  1  0.78701256  0.42295597  0.63165983  1
  Pt  Pt280  1  0.21815594  0.35423738  0.54372280  1
  Pt  Pt281  1  0.52932084  0.57708958  0.81469190  1
  Pt  Pt282  1  0.67860127  0.35431586  0.72198870  1
  Pt  Pt283  1  0.75775479  0.57692388  0.31760060  1
  Pt  Pt284  1  0.34648995  0.71709541  0.32146559  1
  Pt  Pt285  1  0.26869342  0.49813468  0.72883507  1
  Pt  Pt286  1  0.73136885  0.50196802  0.72860716  1
  Pt  Pt287  1  0.26862856  0.28291279  0.54369555  1
  Pt  Pt288  1  0.73747026  0.28285839  0.54535376  1
  Pt  Pt289  1  0.81362931  0.49824355  0.58594799  1
  Pt  Pt290  1  0.18625655  0.50187637  0.41387964  1
  Pt  Pt291  1  0.18632907  0.50185467  0.58597257  1
  Pt  Pt292  1  0.81435339  0.49883859  0.41354045  1
  Pt  Pt293  1  0.62594935  0.20377575  0.54588458  1
  Pt  Pt294  1  0.42104535  0.28242133  0.72865199  1
  Pt  Pt295  1  0.24200471  0.42301076  0.68283790  1
  Pt  Pt296  1  0.57782802  0.28298748  0.72209033  1
  Pt  Pt297  1  0.26867210  0.28290808  0.45635256  1
  Pt  Pt298  1  0.73739614  0.28295984  0.45332957  1
  Pt  Pt299  1  0.79121269  0.42295517  0.36740918  1
  Pt  Pt300  1  0.41764558  0.49802013  0.81466304  1
  Pt  Pt301  1  0.58235353  0.50202148  0.81470277  1
  Pt  Pt302  1  0.21286078  0.57702709  0.63196623  1
  Pt  Pt303  1  0.39700981  0.64575533  0.76603359  1
  Pt  Pt304  1  0.60338650  0.35440163  0.23450610  1
  Pt  Pt305  1  0.39701276  0.64576912  0.23400848  1
  Pt  Pt306  1  0.60303919  0.35422735  0.76595425  1
  Pt  Pt307  1  0.47071404  0.42294579  0.81476905  1
  Pt  Pt308  1  0.21289055  0.57700352  0.36792990  1
  Pt  Pt309  1  0.32137725  0.64573678  0.27776870  1
  Pt  Pt310  1  0.26869132  0.49806473  0.27126869  1
  Pt  Pt311  1  0.73118539  0.50168452  0.27143793  1
  Pt  Pt312  1  0.42098502  0.28245442  0.27138789  1
  Pt  Pt313  1  0.57766064  0.28306078  0.27787895  1
  Pt  Pt314  1  0.52923922  0.57705527  0.18522829  1
  Pt  Pt315  1  0.34126173  0.28249537  0.31727964  1
  Pt  Pt316  1  0.65341382  0.28260975  0.32111531  1
  Pt  Pt317  1  0.67955800  0.35397934  0.27752750  1
  Pt  Pt318  1  0.41782594  0.49795431  0.18535307  1
  Pt  Pt319  1  0.58238078  0.50202592  0.18530153  1
  Pt  Pt320  1  0.24203404  0.42298036  0.31724401  1
  Pt  Pt321  1  0.47100800  0.42292154  0.18554048  1
