# generated using pymatgen
data_Ni43Pt278
_symmetry_space_group_name_H-M   'P 1'
_cell_length_a   30.00000000
_cell_length_b   30.00000000
_cell_length_c   30.00000000
_cell_angle_alpha   90.00000000
_cell_angle_beta   90.00000000
_cell_angle_gamma   90.00000000
_symmetry_Int_Tables_number   1
_chemical_formula_structural   Ni43Pt278
_chemical_formula_sum   'Ni43 Pt278'
_cell_volume   27000.00000000
_cell_formula_units_Z   1
loop_
 _symmetry_equiv_pos_site_id
 _symmetry_equiv_pos_as_xyz
  1  'x, y, z'
loop_
 _atom_site_type_symbol
 _atom_site_label
 _atom_site_symmetry_multiplicity
 _atom_site_fract_x
 _atom_site_fract_y
 _atom_site_fract_z
 _atom_site_occupancy
  Ni  Ni0  1  0.50000000  0.50000000  0.50000000  1
  Ni  Ni1  1  0.44738629  0.35113914  0.40877058  1
  Ni  Ni2  1  0.55261371  0.64886086  0.59122942  1
  Ni  Ni3  1  0.44738629  0.35113914  0.59122942  1
  Ni  Ni4  1  0.55261371  0.64886086  0.40877058  1
  Ni  Ni5  1  0.39471613  0.64877402  0.50000000  1
  Ni  Ni6  1  0.60528387  0.35122598  0.50000000  1
  Ni  Ni7  1  0.65795323  0.50001887  0.59117922  1
  Ni  Ni8  1  0.34204677  0.49998113  0.40882078  1
  Ni  Ni9  1  0.34204677  0.49998113  0.59117922  1
  Ni  Ni10  1  0.65795323  0.50001887  0.40882078  1
  Ni  Ni11  1  0.50000000  0.50000000  0.31768307  1
  Ni  Ni12  1  0.50000000  0.50000000  0.68231693  1
  Ni  Ni13  1  0.29107232  0.35224955  0.50000000  1
  Ni  Ni14  1  0.70892768  0.64775045  0.50000000  1
  Ni  Ni15  1  0.39555919  0.64768623  0.68102248  1
  Ni  Ni16  1  0.60444081  0.35231377  0.31897752  1
  Ni  Ni17  1  0.60444081  0.35231377  0.68102248  1
  Ni  Ni18  1  0.39555919  0.64768623  0.31897752  1
  Ni  Ni19  1  0.40126309  0.20423326  0.50000000  1
  Ni  Ni20  1  0.59873691  0.79576674  0.50000000  1
  Ni  Ni21  1  0.45064721  0.79578232  0.58548357  1
  Ni  Ni22  1  0.54935279  0.20421768  0.41451643  1
  Ni  Ni23  1  0.54935279  0.20421768  0.58548357  1
  Ni  Ni24  1  0.45064721  0.79578232  0.41451643  1
  Ni  Ni25  1  0.70527650  0.64514920  0.68452005  1
  Ni  Ni26  1  0.29472350  0.35485080  0.31547995  1
  Ni  Ni27  1  0.29472350  0.35485080  0.68452005  1
  Ni  Ni28  1  0.70527650  0.64514920  0.31547995  1
  Ni  Ni29  1  0.81183833  0.49447652  0.50000000  1
  Ni  Ni30  1  0.18816167  0.50552348  0.50000000  1
  Ni  Ni31  1  0.76243988  0.35488084  0.41447152  1
  Ni  Ni32  1  0.23756012  0.64511916  0.58552848  1
  Ni  Ni33  1  0.76243988  0.35488084  0.58552848  1
  Ni  Ni34  1  0.23756012  0.64511916  0.41447152  1
  Ni  Ni35  1  0.44277901  0.35488293  0.22999663  1
  Ni  Ni36  1  0.55722099  0.64511707  0.77000337  1
  Ni  Ni37  1  0.44277901  0.35488293  0.77000337  1
  Ni  Ni38  1  0.55722099  0.64511707  0.22999663  1
  Ni  Ni39  1  0.65590601  0.50553098  0.77005790  1
  Ni  Ni40  1  0.34409399  0.49446902  0.22994210  1
  Ni  Ni41  1  0.65590601  0.50553098  0.22994210  1
  Ni  Ni42  1  0.34409399  0.49446902  0.77005790  1
  Pt  Pt43  1  0.52654592  0.57507679  0.54599108  1
  Pt  Pt44  1  0.52654592  0.57507679  0.45400892  1
  Pt  Pt45  1  0.44693896  0.57497809  0.50000000  1
  Pt  Pt46  1  0.57964185  0.50002271  0.54596222  1
  Pt  Pt47  1  0.42035815  0.49997729  0.54596222  1
  Pt  Pt48  1  0.50000000  0.50000000  0.59190982  1
  Pt  Pt49  1  0.50000000  0.50000000  0.40809018  1
  Pt  Pt50  1  0.57964185  0.50002271  0.45403778  1
  Pt  Pt51  1  0.42035815  0.49997729  0.45403778  1
  Pt  Pt52  1  0.55306104  0.42502191  0.50000000  1
  Pt  Pt53  1  0.47345408  0.42492321  0.54599108  1
  Pt  Pt54  1  0.47345408  0.42492321  0.45400892  1
  Pt  Pt55  1  0.44662378  0.57539629  0.40764052  1
  Pt  Pt56  1  0.44662378  0.57539629  0.59235948  1
  Pt  Pt57  1  0.60665801  0.57539765  0.50000000  1
  Pt  Pt58  1  0.39334199  0.42460235  0.50000000  1
  Pt  Pt59  1  0.55337622  0.42460371  0.40764052  1
  Pt  Pt60  1  0.55337622  0.42460371  0.59235948  1
  Pt  Pt61  1  0.60618333  0.57509533  0.59122884  1
  Pt  Pt62  1  0.47323859  0.64950884  0.45365966  1
  Pt  Pt63  1  0.52591074  0.57505953  0.63756845  1
  Pt  Pt64  1  0.44648937  0.35046490  0.50000000  1
  Pt  Pt65  1  0.55351063  0.64953510  0.50000000  1
  Pt  Pt66  1  0.47323859  0.64950884  0.54634034  1
  Pt  Pt67  1  0.60618333  0.57509533  0.40877116  1
  Pt  Pt68  1  0.52676141  0.35049116  0.45365966  1
  Pt  Pt69  1  0.42055374  0.50055884  0.63753757  1
  Pt  Pt70  1  0.36789892  0.57503510  0.54632966  1
  Pt  Pt71  1  0.57944626  0.49944116  0.63753757  1
  Pt  Pt72  1  0.63210108  0.42496490  0.54632966  1
  Pt  Pt73  1  0.52591074  0.57505953  0.36243155  1
  Pt  Pt74  1  0.34112426  0.49938453  0.50000000  1
  Pt  Pt75  1  0.65887574  0.50061547  0.50000000  1
  Pt  Pt76  1  0.39381667  0.42490467  0.59122884  1
  Pt  Pt77  1  0.36789892  0.57503510  0.45367034  1
  Pt  Pt78  1  0.63210108  0.42496490  0.45367034  1
  Pt  Pt79  1  0.47408926  0.42494047  0.63756845  1
  Pt  Pt80  1  0.52676141  0.35049116  0.54634034  1
  Pt  Pt81  1  0.42055374  0.50055884  0.36246243  1
  Pt  Pt82  1  0.57944626  0.49944116  0.36246243  1
  Pt  Pt83  1  0.47408926  0.42494047  0.36243155  1
  Pt  Pt84  1  0.39381667  0.42490467  0.40877116  1
  Pt  Pt85  1  0.63610443  0.65143285  0.54511007  1
  Pt  Pt86  1  0.47099578  0.65143815  0.64041623  1
  Pt  Pt87  1  0.68816013  0.57777958  0.54509692  1
  Pt  Pt88  1  0.68816013  0.57777958  0.45490308  1
  Pt  Pt89  1  0.44499236  0.57774255  0.68546234  1
  Pt  Pt90  1  0.36389557  0.34856715  0.54511007  1
  Pt  Pt91  1  0.52900422  0.34856185  0.64041623  1
  Pt  Pt92  1  0.63610443  0.65143285  0.45488993  1
  Pt  Pt93  1  0.55500764  0.42225745  0.68546234  1
  Pt  Pt94  1  0.39286938  0.65147009  0.59533535  1
  Pt  Pt95  1  0.60713062  0.34852991  0.40466465  1
  Pt  Pt96  1  0.60713062  0.34852991  0.59533535  1
  Pt  Pt97  1  0.39286938  0.65147009  0.40466465  1
  Pt  Pt98  1  0.36684309  0.57777951  0.64040718  1
  Pt  Pt99  1  0.63315691  0.42222049  0.64040718  1
  Pt  Pt100  1  0.47099578  0.65143815  0.35958377  1
  Pt  Pt101  1  0.36389557  0.34856715  0.45488993  1
  Pt  Pt102  1  0.31183987  0.42222042  0.54509692  1
  Pt  Pt103  1  0.36684309  0.57777951  0.35959282  1
  Pt  Pt104  1  0.63315691  0.42222049  0.35959282  1
  Pt  Pt105  1  0.31183987  0.42222042  0.45490308  1
  Pt  Pt106  1  0.52900422  0.34856185  0.35958377  1
  Pt  Pt107  1  0.44499236  0.57774255  0.31453766  1
  Pt  Pt108  1  0.55500764  0.42225745  0.31453766  1
  Pt  Pt109  1  0.50002921  0.72576715  0.50000000  1
  Pt  Pt110  1  0.28707204  0.57520381  0.50000000  1
  Pt  Pt111  1  0.60649029  0.57527909  0.31560184  1
  Pt  Pt112  1  0.60649029  0.57527909  0.68439816  1
  Pt  Pt113  1  0.49997079  0.27423285  0.50000000  1
  Pt  Pt114  1  0.39350971  0.42472091  0.31560184  1
  Pt  Pt115  1  0.39350971  0.42472091  0.68439816  1
  Pt  Pt116  1  0.71292796  0.42479619  0.50000000  1
  Pt  Pt117  1  0.57935380  0.72149544  0.54625980  1
  Pt  Pt118  1  0.50039256  0.72151446  0.59180855  1
  Pt  Pt119  1  0.57935380  0.72149544  0.45374020  1
  Pt  Pt120  1  0.42031560  0.72148357  0.54558132  1
  Pt  Pt121  1  0.42031560  0.72148357  0.45441868  1
  Pt  Pt122  1  0.50039256  0.72151446  0.40819145  1
  Pt  Pt123  1  0.68402022  0.57351648  0.63508657  1
  Pt  Pt124  1  0.31769056  0.64892690  0.54558524  1
  Pt  Pt125  1  0.63061312  0.64900935  0.36488499  1
  Pt  Pt126  1  0.63061312  0.64900935  0.63511501  1
  Pt  Pt127  1  0.68402022  0.57351648  0.36491343  1
  Pt  Pt128  1  0.52498356  0.57348512  0.72694020  1
  Pt  Pt129  1  0.70900892  0.42653113  0.59181516  1
  Pt  Pt130  1  0.68230944  0.35107310  0.54558524  1
  Pt  Pt131  1  0.49960744  0.27848554  0.59180855  1
  Pt  Pt132  1  0.55167053  0.64897543  0.68069141  1
  Pt  Pt133  1  0.44832947  0.35102457  0.31930859  1
  Pt  Pt134  1  0.44832947  0.35102457  0.68069141  1
  Pt  Pt135  1  0.55167053  0.64897543  0.31930859  1
  Pt  Pt136  1  0.29099108  0.57346887  0.59181516  1
  Pt  Pt137  1  0.36938688  0.35099065  0.36488499  1
  Pt  Pt138  1  0.73535499  0.50094209  0.54625679  1
  Pt  Pt139  1  0.26464501  0.49905791  0.54625679  1
  Pt  Pt140  1  0.36938688  0.35099065  0.63511501  1
  Pt  Pt141  1  0.57760582  0.49913857  0.72688099  1
  Pt  Pt142  1  0.31769056  0.64892690  0.45441476  1
  Pt  Pt143  1  0.42239418  0.50086143  0.72688099  1
  Pt  Pt144  1  0.42064620  0.27850456  0.54625980  1
  Pt  Pt145  1  0.57968440  0.27851643  0.54558132  1
  Pt  Pt146  1  0.73535499  0.50094209  0.45374321  1
  Pt  Pt147  1  0.26464501  0.49905791  0.45374321  1
  Pt  Pt148  1  0.42064620  0.27850456  0.45374020  1
  Pt  Pt149  1  0.57968440  0.27851643  0.45441868  1
  Pt  Pt150  1  0.47501644  0.42651488  0.72694020  1
  Pt  Pt151  1  0.65772492  0.49908544  0.68067103  1
  Pt  Pt152  1  0.34227508  0.50091456  0.31932897  1
  Pt  Pt153  1  0.34227508  0.50091456  0.68067103  1
  Pt  Pt154  1  0.65772492  0.49908544  0.31932897  1
  Pt  Pt155  1  0.31597978  0.42648352  0.63508657  1
  Pt  Pt156  1  0.70900892  0.42653113  0.40818484  1
  Pt  Pt157  1  0.52498356  0.57348512  0.27305980  1
  Pt  Pt158  1  0.49960744  0.27848554  0.40819145  1
  Pt  Pt159  1  0.68230944  0.35107310  0.45441476  1
  Pt  Pt160  1  0.29099108  0.57346887  0.40818484  1
  Pt  Pt161  1  0.31597978  0.42648352  0.36491343  1
  Pt  Pt162  1  0.57760582  0.49913857  0.27311901  1
  Pt  Pt163  1  0.42239418  0.50086143  0.27311901  1
  Pt  Pt164  1  0.47501644  0.42651488  0.27305980  1
  Pt  Pt165  1  0.65768417  0.73798812  0.50000000  1
  Pt  Pt166  1  0.58023573  0.72682756  0.63893095  1
  Pt  Pt167  1  0.58023573  0.72682756  0.36106905  1
  Pt  Pt168  1  0.42122236  0.73798543  0.63652999  1
  Pt  Pt169  1  0.77701899  0.56928377  0.50000000  1
  Pt  Pt170  1  0.33962827  0.72672079  0.50000000  1
  Pt  Pt171  1  0.42122236  0.73798543  0.36347001  1
  Pt  Pt172  1  0.71732402  0.65367869  0.60332000  1
  Pt  Pt173  1  0.28267598  0.34632131  0.39668000  1
  Pt  Pt174  1  0.28267598  0.34632131  0.60332000  1
  Pt  Pt175  1  0.71732402  0.65367869  0.39668000  1
  Pt  Pt176  1  0.48086125  0.65365795  0.73988445  1
  Pt  Pt177  1  0.30186558  0.65362593  0.36341964  1
  Pt  Pt178  1  0.30186558  0.65362593  0.63658036  1
  Pt  Pt179  1  0.74069580  0.50000801  0.63898930  1
  Pt  Pt180  1  0.25930420  0.49999199  0.63898930  1
  Pt  Pt181  1  0.48086125  0.65365795  0.26011555  1
  Pt  Pt182  1  0.36158939  0.56927929  0.73985817  1
  Pt  Pt183  1  0.41976427  0.27317244  0.63893095  1
  Pt  Pt184  1  0.57877764  0.26201457  0.63652999  1
  Pt  Pt185  1  0.63841061  0.43072071  0.73985817  1
  Pt  Pt186  1  0.34231583  0.26201188  0.50000000  1
  Pt  Pt187  1  0.66037173  0.27327921  0.50000000  1
  Pt  Pt188  1  0.51913875  0.34634205  0.73988445  1
  Pt  Pt189  1  0.69813442  0.34637407  0.36341964  1
  Pt  Pt190  1  0.69813442  0.34637407  0.63658036  1
  Pt  Pt191  1  0.74069580  0.50000801  0.36101070  1
  Pt  Pt192  1  0.25930420  0.49999199  0.36101070  1
  Pt  Pt193  1  0.41976427  0.27317244  0.36106905  1
  Pt  Pt194  1  0.57877764  0.26201457  0.36347001  1
  Pt  Pt195  1  0.22298101  0.43071623  0.50000000  1
  Pt  Pt196  1  0.51913875  0.34634205  0.26011555  1
  Pt  Pt197  1  0.50000000  0.50000000  0.22204542  1
  Pt  Pt198  1  0.50000000  0.50000000  0.77795458  1
  Pt  Pt199  1  0.36158939  0.56927929  0.26014183  1
  Pt  Pt200  1  0.63841061  0.43072071  0.26014183  1
  Pt  Pt201  1  0.33850087  0.72835985  0.40736608  1
  Pt  Pt202  1  0.66100157  0.72838815  0.40642093  1
  Pt  Pt203  1  0.33850087  0.72835985  0.59263392  1
  Pt  Pt204  1  0.66100157  0.72838815  0.59357907  1
  Pt  Pt205  1  0.50054725  0.72840053  0.31385827  1
  Pt  Pt206  1  0.50054725  0.72840053  0.68614173  1
  Pt  Pt207  1  0.33899843  0.27161185  0.40642093  1
  Pt  Pt208  1  0.23102331  0.42437237  0.40644817  1
  Pt  Pt209  1  0.33899843  0.27161185  0.59357907  1
  Pt  Pt210  1  0.28452596  0.57560215  0.31380107  1
  Pt  Pt211  1  0.23102331  0.42437237  0.59355183  1
  Pt  Pt212  1  0.28452596  0.57560215  0.68619893  1
  Pt  Pt213  1  0.76897669  0.57562763  0.40644817  1
  Pt  Pt214  1  0.76897669  0.57562763  0.59355183  1
  Pt  Pt215  1  0.44654880  0.57555545  0.22031726  1
  Pt  Pt216  1  0.44654880  0.57555545  0.77968274  1
  Pt  Pt217  1  0.49945275  0.27159947  0.31385827  1
  Pt  Pt218  1  0.49945275  0.27159947  0.68614173  1
  Pt  Pt219  1  0.66149913  0.27164015  0.40736608  1
  Pt  Pt220  1  0.66149913  0.27164015  0.59263392  1
  Pt  Pt221  1  0.55345120  0.42444455  0.22031726  1
  Pt  Pt222  1  0.71547404  0.42439785  0.31380107  1
  Pt  Pt223  1  0.55345120  0.42444455  0.77968274  1
  Pt  Pt224  1  0.71547404  0.42439785  0.68619893  1
  Pt  Pt225  1  0.52537653  0.80445132  0.54393972  1
  Pt  Pt226  1  0.47462347  0.19554868  0.54393972  1
  Pt  Pt227  1  0.52537653  0.80445132  0.45606028  1
  Pt  Pt228  1  0.55074033  0.19555146  0.50000000  1
  Pt  Pt229  1  0.44925967  0.80444854  0.50000000  1
  Pt  Pt230  1  0.63509669  0.64937543  0.73399562  1
  Pt  Pt231  1  0.60973158  0.57759136  0.77795816  1
  Pt  Pt232  1  0.68583638  0.57759959  0.73397155  1
  Pt  Pt233  1  0.36490331  0.35062457  0.73399562  1
  Pt  Pt234  1  0.79554022  0.42243853  0.54396146  1
  Pt  Pt235  1  0.47462347  0.19554868  0.45606028  1
  Pt  Pt236  1  0.79554022  0.42243853  0.45603854  1
  Pt  Pt237  1  0.39026842  0.42240864  0.77795816  1
  Pt  Pt238  1  0.77015640  0.35068321  0.50000000  1
  Pt  Pt239  1  0.22984360  0.64931679  0.50000000  1
  Pt  Pt240  1  0.68583638  0.57759959  0.26602845  1
  Pt  Pt241  1  0.20445978  0.57756147  0.54396146  1
  Pt  Pt242  1  0.63509669  0.64937543  0.26600438  1
  Pt  Pt243  1  0.31416362  0.42240041  0.73397155  1
  Pt  Pt244  1  0.20445978  0.57756147  0.45603854  1
  Pt  Pt245  1  0.36490331  0.35062457  0.26600438  1
  Pt  Pt246  1  0.60973158  0.57759136  0.22204184  1
  Pt  Pt247  1  0.31416362  0.42240041  0.26602845  1
  Pt  Pt248  1  0.39026842  0.42240864  0.22204184  1
  Pt  Pt249  1  0.65865922  0.71747817  0.68269650  1
  Pt  Pt250  1  0.73149801  0.71723568  0.54373953  1
  Pt  Pt251  1  0.73149801  0.71723568  0.45626047  1
  Pt  Pt252  1  0.52312327  0.79638049  0.36800549  1
  Pt  Pt253  1  0.37410804  0.79630147  0.45402210  1
  Pt  Pt254  1  0.57887675  0.71749026  0.72864268  1
  Pt  Pt255  1  0.60282056  0.79635619  0.58599693  1
  Pt  Pt256  1  0.39717944  0.20364381  0.41400307  1
  Pt  Pt257  1  0.39717944  0.20364381  0.58599693  1
  Pt  Pt258  1  0.60282056  0.79635619  0.41400307  1
  Pt  Pt259  1  0.52312327  0.79638049  0.63199451  1
  Pt  Pt260  1  0.75790108  0.57705328  0.68267098  1
  Pt  Pt261  1  0.34647086  0.71715907  0.67859981  1
  Pt  Pt262  1  0.42217403  0.71717794  0.72233425  1
  Pt  Pt263  1  0.65865922  0.71747817  0.31730350  1
  Pt  Pt264  1  0.78193185  0.64581792  0.45629782  1
  Pt  Pt265  1  0.37410804  0.79630147  0.54597790  1
  Pt  Pt266  1  0.57887675  0.71749026  0.27135732  1
  Pt  Pt267  1  0.47687673  0.20361951  0.36800549  1
  Pt  Pt268  1  0.62589196  0.20369853  0.45402210  1
  Pt  Pt269  1  0.78193185  0.64581792  0.54370218  1
  Pt  Pt270  1  0.26254684  0.71742897  0.54601021  1
  Pt  Pt271  1  0.32125474  0.64577811  0.72235654  1
  Pt  Pt272  1  0.21806815  0.35418208  0.45629782  1
  Pt  Pt273  1  0.26254684  0.71742897  0.45398979  1
  Pt  Pt274  1  0.42217403  0.71717794  0.27766575  1
  Pt  Pt275  1  0.47687673  0.20361951  0.63199451  1
  Pt  Pt276  1  0.34134078  0.28252183  0.68269650  1
  Pt  Pt277  1  0.65352914  0.28284093  0.67859981  1
  Pt  Pt278  1  0.78713451  0.42299240  0.63201747  1
  Pt  Pt279  1  0.21806815  0.35418208  0.54370218  1
  Pt  Pt280  1  0.52925368  0.57706360  0.81471580  1
  Pt  Pt281  1  0.67874526  0.35422189  0.72235654  1
  Pt  Pt282  1  0.75790108  0.57705328  0.31732902  1
  Pt  Pt283  1  0.34647086  0.71715907  0.32140019  1
  Pt  Pt284  1  0.26866557  0.49809315  0.72870028  1
  Pt  Pt285  1  0.73133443  0.50190685  0.72870028  1
  Pt  Pt286  1  0.26850199  0.28276432  0.54373953  1
  Pt  Pt287  1  0.73745316  0.28257103  0.54601021  1
  Pt  Pt288  1  0.81374138  0.49814738  0.58600505  1
  Pt  Pt289  1  0.18625862  0.50185262  0.41399495  1
  Pt  Pt290  1  0.18625862  0.50185262  0.58600505  1
  Pt  Pt291  1  0.81374138  0.49814738  0.41399495  1
  Pt  Pt292  1  0.62589196  0.20369853  0.54597790  1
  Pt  Pt293  1  0.42112325  0.28250974  0.72864268  1
  Pt  Pt294  1  0.24209892  0.42294672  0.68267098  1
  Pt  Pt295  1  0.57782597  0.28282206  0.72233425  1
  Pt  Pt296  1  0.26850199  0.28276432  0.45626047  1
  Pt  Pt297  1  0.73745316  0.28257103  0.45398979  1
  Pt  Pt298  1  0.78713451  0.42299240  0.36798253  1
  Pt  Pt299  1  0.41762456  0.49808210  0.81466024  1
  Pt  Pt300  1  0.58237544  0.50191790  0.81466024  1
  Pt  Pt301  1  0.21286549  0.57700760  0.63201747  1
  Pt  Pt302  1  0.39695925  0.64580406  0.76611333  1
  Pt  Pt303  1  0.60304075  0.35419594  0.23388667  1
  Pt  Pt304  1  0.39695925  0.64580406  0.23388667  1
  Pt  Pt305  1  0.60304075  0.35419594  0.76611333  1
  Pt  Pt306  1  0.47074632  0.42293640  0.81471580  1
  Pt  Pt307  1  0.21286549  0.57700760  0.36798253  1
  Pt  Pt308  1  0.32125474  0.64577811  0.27764346  1
  Pt  Pt309  1  0.26866557  0.49809315  0.27129972  1
  Pt  Pt310  1  0.73133443  0.50190685  0.27129972  1
  Pt  Pt311  1  0.42112325  0.28250974  0.27135732  1
  Pt  Pt312  1  0.57782597  0.28282206  0.27766575  1
  Pt  Pt313  1  0.52925368  0.57706360  0.18528420  1
  Pt  Pt314  1  0.34134078  0.28252183  0.31730350  1
  Pt  Pt315  1  0.65352914  0.28284093  0.32140019  1
  Pt  Pt316  1  0.67874526  0.35422189  0.27764346  1
  Pt  Pt317  1  0.41762456  0.49808210  0.18533976  1
  Pt  Pt318  1  0.58237544  0.50191790  0.18533976  1
  Pt  Pt319  1  0.24209892  0.42294672  0.31732902  1
  Pt  Pt320  1  0.47074632  0.42293640  0.18528420  1
