# generated using pymatgen
data_Ni43HPt278
_symmetry_space_group_name_H-M   'P 1'
_cell_length_a   30.00000000
_cell_length_b   30.00000000
_cell_length_c   30.00000000
_cell_angle_alpha   90.00000000
_cell_angle_beta   90.00000000
_cell_angle_gamma   90.00000000
_symmetry_Int_Tables_number   1
_chemical_formula_structural   Ni43HPt278
_chemical_formula_sum   'Ni43 H1 Pt278'
_cell_volume   27000.00000000
_cell_formula_units_Z   1
loop_
 _symmetry_equiv_pos_site_id
 _symmetry_equiv_pos_as_xyz
  1  'x, y, z'
loop_
 _atom_site_type_symbol
 _atom_site_label
 _atom_site_symmetry_multiplicity
 _atom_site_fract_x
 _atom_site_fract_y
 _atom_site_fract_z
 _atom_site_occupancy
  Ni  Ni0  1  0.50003606  0.50000830  0.50000565  1
  Ni  Ni1  1  0.44736227  0.35119317  0.40883862  1
  Ni  Ni2  1  0.55286061  0.64881706  0.59109007  1
  Ni  Ni3  1  0.44749615  0.35115980  0.59122371  1
  Ni  Ni4  1  0.55256664  0.64880677  0.40878195  1
  Ni  Ni5  1  0.39487086  0.64867705  0.50036437  1
  Ni  Ni6  1  0.60519008  0.35131005  0.50002515  1
  Ni  Ni7  1  0.65785250  0.49999143  0.59116194  1
  Ni  Ni8  1  0.34215874  0.50001794  0.40879311  1
  Ni  Ni9  1  0.34186743  0.49953627  0.59093761  1
  Ni  Ni10  1  0.65788215  0.50000167  0.40884576  1
  Ni  Ni11  1  0.49999676  0.50003080  0.31772301  1
  Ni  Ni12  1  0.49980583  0.50033508  0.68225365  1
  Ni  Ni13  1  0.29106712  0.35227823  0.50000103  1
  Ni  Ni14  1  0.70886546  0.64766157  0.50000548  1
  Ni  Ni15  1  0.39582161  0.64806219  0.68108676  1
  Ni  Ni16  1  0.60438394  0.35239984  0.31903530  1
  Ni  Ni17  1  0.60427099  0.35241063  0.68099415  1
  Ni  Ni18  1  0.39553213  0.64760407  0.31914003  1
  Ni  Ni19  1  0.40127637  0.20425899  0.50002438  1
  Ni  Ni20  1  0.59868946  0.79578991  0.50001278  1
  Ni  Ni21  1  0.45056427  0.79514813  0.58571690  1
  Ni  Ni22  1  0.54930748  0.20430051  0.41455986  1
  Ni  Ni23  1  0.54935603  0.20425160  0.58542095  1
  Ni  Ni24  1  0.45062914  0.79558546  0.41467863  1
  Ni  Ni25  1  0.70518999  0.64509136  0.68457451  1
  Ni  Ni26  1  0.29472926  0.35484830  0.31543359  1
  Ni  Ni27  1  0.29476344  0.35484877  0.68445585  1
  Ni  Ni28  1  0.70522833  0.64510843  0.31550320  1
  Ni  Ni29  1  0.81182348  0.49448194  0.49996659  1
  Ni  Ni30  1  0.18821320  0.50546476  0.49997081  1
  Ni  Ni31  1  0.76237864  0.35489421  0.41450340  1
  Ni  Ni32  1  0.23757025  0.64498510  0.58572863  1
  Ni  Ni33  1  0.76248132  0.35493063  0.58552531  1
  Ni  Ni34  1  0.23769627  0.64513361  0.41467784  1
  Ni  Ni35  1  0.44278613  0.35487431  0.23001082  1
  Ni  Ni36  1  0.55672490  0.64510186  0.76959260  1
  Ni  Ni37  1  0.44277744  0.35509689  0.76995169  1
  Ni  Ni38  1  0.55725497  0.64516108  0.23001025  1
  Ni  Ni39  1  0.65565149  0.50559666  0.76984331  1
  Ni  Ni40  1  0.34416170  0.49442671  0.22996363  1
  Ni  Ni41  1  0.65578343  0.50555838  0.23008510  1
  Ni  Ni42  1  0.34396451  0.49464695  0.76986766  1
  H  H43  1  0.40169474  0.75103554  0.76327402  1
  Pt  Pt44  1  0.52658600  0.57494144  0.54589751  1
  Pt  Pt45  1  0.52651771  0.57499065  0.45404523  1
  Pt  Pt46  1  0.44706604  0.57485877  0.50001822  1
  Pt  Pt47  1  0.57956422  0.49999966  0.54592896  1
  Pt  Pt48  1  0.42037556  0.49977130  0.54582326  1
  Pt  Pt49  1  0.50001474  0.50000174  0.59178093  1
  Pt  Pt50  1  0.49999776  0.50000701  0.40822727  1
  Pt  Pt51  1  0.57954807  0.50000733  0.45407189  1
  Pt  Pt52  1  0.42047363  0.49999540  0.45404428  1
  Pt  Pt53  1  0.55297440  0.42510395  0.50000485  1
  Pt  Pt54  1  0.47353479  0.42499540  0.54595795  1
  Pt  Pt55  1  0.47348028  0.42500325  0.45406803  1
  Pt  Pt56  1  0.44665721  0.57549235  0.40761760  1
  Pt  Pt57  1  0.44653916  0.57515164  0.59227002  1
  Pt  Pt58  1  0.60669257  0.57534355  0.49995699  1
  Pt  Pt59  1  0.39333381  0.42450320  0.49993053  1
  Pt  Pt60  1  0.55339750  0.42457616  0.40761956  1
  Pt  Pt61  1  0.55344566  0.42460541  0.59241567  1
  Pt  Pt62  1  0.60615481  0.57500513  0.59115384  1
  Pt  Pt63  1  0.47322681  0.64944980  0.45382406  1
  Pt  Pt64  1  0.52580966  0.57526862  0.63738471  1
  Pt  Pt65  1  0.44648457  0.35051398  0.50003710  1
  Pt  Pt66  1  0.55357922  0.64941730  0.49994066  1
  Pt  Pt67  1  0.47342812  0.64935033  0.54659125  1
  Pt  Pt68  1  0.60611244  0.57503666  0.40879821  1
  Pt  Pt69  1  0.52675225  0.35055559  0.45367119  1
  Pt  Pt70  1  0.42051351  0.50038962  0.63737986  1
  Pt  Pt71  1  0.36791984  0.57477996  0.54619973  1
  Pt  Pt72  1  0.57932119  0.49954478  0.63749967  1
  Pt  Pt73  1  0.63204217  0.42498646  0.54632403  1
  Pt  Pt74  1  0.52589255  0.57503367  0.36249250  1
  Pt  Pt75  1  0.34110528  0.49926541  0.49976639  1
  Pt  Pt76  1  0.65879887  0.50058343  0.49999471  1
  Pt  Pt77  1  0.39388830  0.42467780  0.59114870  1
  Pt  Pt78  1  0.36805147  0.57504658  0.45371891  1
  Pt  Pt79  1  0.63201121  0.42496984  0.45366625  1
  Pt  Pt80  1  0.47415604  0.42504658  0.63752057  1
  Pt  Pt81  1  0.52679272  0.35056844  0.54633240  1
  Pt  Pt82  1  0.42063776  0.50059056  0.36253766  1
  Pt  Pt83  1  0.57938846  0.49940144  0.36253643  1
  Pt  Pt84  1  0.47410945  0.42498307  0.36250289  1
  Pt  Pt85  1  0.39385281  0.42496203  0.40878787  1
  Pt  Pt86  1  0.63619865  0.65136441  0.54503580  1
  Pt  Pt87  1  0.47099816  0.65151950  0.64052080  1
  Pt  Pt88  1  0.68812706  0.57778744  0.54508013  1
  Pt  Pt89  1  0.68809960  0.57777055  0.45494993  1
  Pt  Pt90  1  0.44447533  0.57793425  0.68505621  1
  Pt  Pt91  1  0.36377489  0.34845204  0.54505884  1
  Pt  Pt92  1  0.52904810  0.34866363  0.64039193  1
  Pt  Pt93  1  0.63613530  0.65140831  0.45491636  1
  Pt  Pt94  1  0.55499570  0.42233216  0.68542231  1
  Pt  Pt95  1  0.39289700  0.65092032  0.59572265  1
  Pt  Pt96  1  0.60710671  0.34852229  0.40462927  1
  Pt  Pt97  1  0.60714334  0.34855172  0.59540776  1
  Pt  Pt98  1  0.39290868  0.65150747  0.40472841  1
  Pt  Pt99  1  0.36654384  0.57712173  0.63996017  1
  Pt  Pt100  1  0.63315063  0.42213723  0.64043462  1
  Pt  Pt101  1  0.47092353  0.65145807  0.35953320  1
  Pt  Pt102  1  0.36384214  0.34860768  0.45492528  1
  Pt  Pt103  1  0.31188339  0.42212846  0.54499629  1
  Pt  Pt104  1  0.36692242  0.57781646  0.35966103  1
  Pt  Pt105  1  0.63311935  0.42211866  0.35958012  1
  Pt  Pt106  1  0.31176662  0.42210498  0.45485064  1
  Pt  Pt107  1  0.52902708  0.34859994  0.35958989  1
  Pt  Pt108  1  0.44495638  0.57782542  0.31459310  1
  Pt  Pt109  1  0.55500455  0.42223198  0.31460692  1
  Pt  Pt110  1  0.49997780  0.72562833  0.50018446  1
  Pt  Pt111  1  0.28707379  0.57509815  0.50002849  1
  Pt  Pt112  1  0.60640850  0.57525456  0.31566837  1
  Pt  Pt113  1  0.60627417  0.57532126  0.68435273  1
  Pt  Pt114  1  0.49995717  0.27433322  0.49999452  1
  Pt  Pt115  1  0.39356258  0.42474790  0.31564096  1
  Pt  Pt116  1  0.39350673  0.42475046  0.68433018  1
  Pt  Pt117  1  0.71285591  0.42484754  0.50002889  1
  Pt  Pt118  1  0.57942511  0.72138674  0.54618370  1
  Pt  Pt119  1  0.50078328  0.72146539  0.59197436  1
  Pt  Pt120  1  0.57931017  0.72143019  0.45385077  1
  Pt  Pt121  1  0.42043079  0.72126399  0.54597634  1
  Pt  Pt122  1  0.42030062  0.72143262  0.45478305  1
  Pt  Pt123  1  0.50031031  0.72137545  0.40832138  1
  Pt  Pt124  1  0.68391596  0.57351173  0.63507621  1
  Pt  Pt125  1  0.31784571  0.64871431  0.54590438  1
  Pt  Pt126  1  0.63065239  0.64892993  0.36497058  1
  Pt  Pt127  1  0.63068638  0.64893815  0.63501156  1
  Pt  Pt128  1  0.68397056  0.57349348  0.36498152  1
  Pt  Pt129  1  0.52471282  0.57379739  0.72669515  1
  Pt  Pt130  1  0.70895031  0.42651197  0.59181283  1
  Pt  Pt131  1  0.68226991  0.35113853  0.54562550  1
  Pt  Pt132  1  0.49969917  0.27856734  0.59178337  1
  Pt  Pt133  1  0.55186754  0.64925144  0.68047604  1
  Pt  Pt134  1  0.44836799  0.35111677  0.31932794  1
  Pt  Pt135  1  0.44840645  0.35123551  0.68071820  1
  Pt  Pt136  1  0.55160209  0.64889081  0.31931903  1
  Pt  Pt137  1  0.29091398  0.57348272  0.59170858  1
  Pt  Pt138  1  0.36932428  0.35106879  0.36492318  1
  Pt  Pt139  1  0.73529511  0.50100658  0.54619670  1
  Pt  Pt140  1  0.26460017  0.49887255  0.54607581  1
  Pt  Pt141  1  0.36941470  0.35095744  0.63501195  1
  Pt  Pt142  1  0.57730434  0.49935799  0.72681801  1
  Pt  Pt143  1  0.31788614  0.64887185  0.45462560  1
  Pt  Pt144  1  0.42222043  0.50117804  0.72666368  1
  Pt  Pt145  1  0.42066037  0.27855391  0.54622059  1
  Pt  Pt146  1  0.57966578  0.27860420  0.54561034  1
  Pt  Pt147  1  0.73529826  0.50097775  0.45377376  1
  Pt  Pt148  1  0.26471753  0.49894502  0.45367594  1
  Pt  Pt149  1  0.42062304  0.27858121  0.45383369  1
  Pt  Pt150  1  0.57962842  0.27858203  0.45440455  1
  Pt  Pt151  1  0.47501783  0.42677157  0.72679398  1
  Pt  Pt152  1  0.65754317  0.49909369  0.68060233  1
  Pt  Pt153  1  0.34239071  0.50096205  0.31933500  1
  Pt  Pt154  1  0.34231598  0.50082471  0.68073500  1
  Pt  Pt155  1  0.65764521  0.49903248  0.31940074  1
  Pt  Pt156  1  0.31596745  0.42626745  0.63500969  1
  Pt  Pt157  1  0.70892461  0.42654661  0.40820992  1
  Pt  Pt158  1  0.52492590  0.57351725  0.27316195  1
  Pt  Pt159  1  0.49963241  0.27856452  0.40820700  1
  Pt  Pt160  1  0.68226472  0.35115697  0.45443396  1
  Pt  Pt161  1  0.29110832  0.57354759  0.40828029  1
  Pt  Pt162  1  0.31600997  0.42647982  0.36490682  1
  Pt  Pt163  1  0.57755701  0.49913501  0.27324521  1
  Pt  Pt164  1  0.42243624  0.50090853  0.27322658  1
  Pt  Pt165  1  0.47502779  0.42650485  0.27315289  1
  Pt  Pt166  1  0.65771567  0.73818583  0.49995097  1
  Pt  Pt167  1  0.58053102  0.72717838  0.63906068  1
  Pt  Pt168  1  0.58019059  0.72663112  0.36121471  1
  Pt  Pt169  1  0.42203693  0.73616550  0.63705614  1
  Pt  Pt170  1  0.77707059  0.56931155  0.50003256  1
  Pt  Pt171  1  0.33979345  0.72651372  0.50037516  1
  Pt  Pt172  1  0.42111202  0.73779002  0.36369777  1
  Pt  Pt173  1  0.71749451  0.65370364  0.60346107  1
  Pt  Pt174  1  0.28254923  0.34630709  0.39659176  1
  Pt  Pt175  1  0.28258782  0.34619697  0.60325117  1
  Pt  Pt176  1  0.71742954  0.65372821  0.39665367  1
  Pt  Pt177  1  0.48028425  0.65390293  0.73794190  1
  Pt  Pt178  1  0.30182028  0.65366943  0.36348781  1
  Pt  Pt179  1  0.30190411  0.65440189  0.63679602  1
  Pt  Pt180  1  0.74052595  0.50004339  0.63886576  1
  Pt  Pt181  1  0.25938843  0.49989270  0.63885684  1
  Pt  Pt182  1  0.48089862  0.65378565  0.25993569  1
  Pt  Pt183  1  0.36179556  0.56978299  0.74042673  1
  Pt  Pt184  1  0.41985750  0.27332203  0.63884064  1
  Pt  Pt185  1  0.57878609  0.26187284  0.63660011  1
  Pt  Pt186  1  0.63811515  0.43080980  0.73973125  1
  Pt  Pt187  1  0.34229650  0.26187178  0.50003838  1
  Pt  Pt188  1  0.66033002  0.27333039  0.50000505  1
  Pt  Pt189  1  0.51909965  0.34643003  0.73992869  1
  Pt  Pt190  1  0.69813536  0.34635657  0.36339286  1
  Pt  Pt191  1  0.69830072  0.34630655  0.63663508  1
  Pt  Pt192  1  0.74066010  0.50001188  0.36104710  1
  Pt  Pt193  1  0.25948120  0.49998042  0.36108365  1
  Pt  Pt194  1  0.41976391  0.27329596  0.36116745  1
  Pt  Pt195  1  0.57882485  0.26194404  0.36345465  1
  Pt  Pt196  1  0.22296955  0.43054337  0.49994138  1
  Pt  Pt197  1  0.51916361  0.34634866  0.26005320  1
  Pt  Pt198  1  0.49997830  0.50000887  0.22204045  1
  Pt  Pt199  1  0.49974932  0.50036018  0.77774298  1
  Pt  Pt200  1  0.36150404  0.56930215  0.26000750  1
  Pt  Pt201  1  0.63839181  0.43069325  0.26011016  1
  Pt  Pt202  1  0.33856212  0.72831703  0.40755696  1
  Pt  Pt203  1  0.66100801  0.72830281  0.40645811  1
  Pt  Pt204  1  0.33906163  0.72826321  0.59322725  1
  Pt  Pt205  1  0.66082049  0.72818496  0.59354669  1
  Pt  Pt206  1  0.50055151  0.72833337  0.31384487  1
  Pt  Pt207  1  0.50087096  0.72883121  0.68640554  1
  Pt  Pt208  1  0.33904805  0.27175660  0.40650885  1
  Pt  Pt209  1  0.23099194  0.42428789  0.40635236  1
  Pt  Pt210  1  0.33905704  0.27151465  0.59355465  1
  Pt  Pt211  1  0.28466373  0.57559284  0.31392978  1
  Pt  Pt212  1  0.23104496  0.42421356  0.59343610  1
  Pt  Pt213  1  0.28452675  0.57527714  0.68589391  1
  Pt  Pt214  1  0.76883096  0.57563257  0.40652170  1
  Pt  Pt215  1  0.76892860  0.57566438  0.59353760  1
  Pt  Pt216  1  0.44657901  0.57554844  0.22053439  1
  Pt  Pt217  1  0.44651914  0.57640580  0.77926052  1
  Pt  Pt218  1  0.49948286  0.27168164  0.31386932  1
  Pt  Pt219  1  0.49945924  0.27177993  0.68609380  1
  Pt  Pt220  1  0.66142842  0.27174890  0.40738646  1
  Pt  Pt221  1  0.66139853  0.27174914  0.59262320  1
  Pt  Pt222  1  0.55345065  0.42449806  0.22051362  1
  Pt  Pt223  1  0.71536453  0.42440245  0.31384084  1
  Pt  Pt224  1  0.55334046  0.42462753  0.77956377  1
  Pt  Pt225  1  0.71543405  0.42441863  0.68616042  1
  Pt  Pt226  1  0.52522793  0.80427257  0.54391299  1
  Pt  Pt227  1  0.47466141  0.19561930  0.54383997  1
  Pt  Pt228  1  0.52529195  0.80440020  0.45619713  1
  Pt  Pt229  1  0.55064023  0.19559536  0.49996451  1
  Pt  Pt230  1  0.44924905  0.80440679  0.50010979  1
  Pt  Pt231  1  0.63493854  0.64918530  0.73397412  1
  Pt  Pt232  1  0.60959556  0.57762226  0.77786429  1
  Pt  Pt233  1  0.68566139  0.57764065  0.73402397  1
  Pt  Pt234  1  0.36492649  0.35083076  0.73395450  1
  Pt  Pt235  1  0.79550311  0.42246929  0.54388989  1
  Pt  Pt236  1  0.47465373  0.19558166  0.45609941  1
  Pt  Pt237  1  0.79548044  0.42243878  0.45610078  1
  Pt  Pt238  1  0.39025530  0.42255904  0.77777499  1
  Pt  Pt239  1  0.77017366  0.35082093  0.50001017  1
  Pt  Pt240  1  0.22995929  0.64920273  0.50013456  1
  Pt  Pt241  1  0.68572158  0.57762823  0.26605368  1
  Pt  Pt242  1  0.20443510  0.57756822  0.54397415  1
  Pt  Pt243  1  0.63509556  0.64927683  0.26603333  1
  Pt  Pt244  1  0.31418785  0.42243443  0.73400014  1
  Pt  Pt245  1  0.20451086  0.57757684  0.45614766  1
  Pt  Pt246  1  0.36490586  0.35068280  0.26597569  1
  Pt  Pt247  1  0.60976356  0.57765859  0.22216541  1
  Pt  Pt248  1  0.31424912  0.42234573  0.26601721  1
  Pt  Pt249  1  0.39023942  0.42233770  0.22213680  1
  Pt  Pt250  1  0.65868341  0.71727488  0.68291684  1
  Pt  Pt251  1  0.73127295  0.71715849  0.54379504  1
  Pt  Pt252  1  0.73137718  0.71706124  0.45639617  1
  Pt  Pt253  1  0.52307668  0.79624962  0.36814217  1
  Pt  Pt254  1  0.37408010  0.79629312  0.45425225  1
  Pt  Pt255  1  0.57917099  0.71753512  0.72896260  1
  Pt  Pt256  1  0.60260206  0.79646151  0.58586898  1
  Pt  Pt257  1  0.39729628  0.20367577  0.41406509  1
  Pt  Pt258  1  0.39738383  0.20359458  0.58595815  1
  Pt  Pt259  1  0.60271253  0.79630640  0.41410656  1
  Pt  Pt260  1  0.52311572  0.79674599  0.63192516  1
  Pt  Pt261  1  0.75773376  0.57708423  0.68272653  1
  Pt  Pt262  1  0.34750607  0.71689040  0.67938542  1
  Pt  Pt263  1  0.42208865  0.72122328  0.72563785  1
  Pt  Pt264  1  0.65866288  0.71737090  0.31726651  1
  Pt  Pt265  1  0.78187509  0.64573965  0.45629483  1
  Pt  Pt266  1  0.37416506  0.79624001  0.54617470  1
  Pt  Pt267  1  0.57896943  0.71740052  0.27140252  1
  Pt  Pt268  1  0.47686573  0.20366672  0.36808989  1
  Pt  Pt269  1  0.62579424  0.20369610  0.45406931  1
  Pt  Pt270  1  0.78172618  0.64580668  0.54365250  1
  Pt  Pt271  1  0.26279336  0.71714744  0.54649401  1
  Pt  Pt272  1  0.32107597  0.64509658  0.72179643  1
  Pt  Pt273  1  0.21807146  0.35416679  0.45620642  1
  Pt  Pt274  1  0.26268307  0.71736150  0.45438896  1
  Pt  Pt275  1  0.42215967  0.71705246  0.27790773  1
  Pt  Pt276  1  0.47696571  0.20365379  0.63187608  1
  Pt  Pt277  1  0.34135819  0.28265046  0.68275222  1
  Pt  Pt278  1  0.65341123  0.28300943  0.67850358  1
  Pt  Pt279  1  0.78716647  0.42304916  0.63190161  1
  Pt  Pt280  1  0.21815144  0.35406064  0.54360278  1
  Pt  Pt281  1  0.52915342  0.57725022  0.81463542  1
  Pt  Pt282  1  0.67854605  0.35437967  0.72224048  1
  Pt  Pt283  1  0.75777903  0.57705986  0.31726106  1
  Pt  Pt284  1  0.34646270  0.71711584  0.32158639  1
  Pt  Pt285  1  0.26856449  0.49793714  0.72867024  1
  Pt  Pt286  1  0.73117243  0.50198547  0.72865692  1
  Pt  Pt287  1  0.26862775  0.28269741  0.54375557  1
  Pt  Pt288  1  0.73748969  0.28273375  0.54602130  1
  Pt  Pt289  1  0.81371366  0.49814865  0.58592450  1
  Pt  Pt290  1  0.18626798  0.50187294  0.41405819  1
  Pt  Pt291  1  0.18621999  0.50181043  0.58592070  1
  Pt  Pt292  1  0.81372604  0.49809670  0.41404827  1
  Pt  Pt293  1  0.62576941  0.20368715  0.54589215  1
  Pt  Pt294  1  0.42105754  0.28268791  0.72859238  1
  Pt  Pt295  1  0.24214200  0.42288137  0.68269352  1
  Pt  Pt296  1  0.57776711  0.28298684  0.72226705  1
  Pt  Pt297  1  0.26866037  0.28288687  0.45630065  1
  Pt  Pt298  1  0.73748426  0.28270052  0.45404794  1
  Pt  Pt299  1  0.78710152  0.42294320  0.36808129  1
  Pt  Pt300  1  0.41738059  0.49854295  0.81430098  1
  Pt  Pt301  1  0.58218747  0.50204362  0.81460833  1
  Pt  Pt302  1  0.21270289  0.57686911  0.63195310  1
  Pt  Pt303  1  0.39700354  0.64689971  0.76514335  1
  Pt  Pt304  1  0.60301293  0.35424334  0.23388841  1
  Pt  Pt305  1  0.39701458  0.64574334  0.23402934  1
  Pt  Pt306  1  0.60291016  0.35434226  0.76608519  1
  Pt  Pt307  1  0.47059748  0.42328602  0.81459605  1
  Pt  Pt308  1  0.21289534  0.57701452  0.36813051  1
  Pt  Pt309  1  0.32131273  0.64577680  0.27776721  1
  Pt  Pt310  1  0.26878957  0.49805133  0.27124316  1
  Pt  Pt311  1  0.73123720  0.50196590  0.27126437  1
  Pt  Pt312  1  0.42108378  0.28259768  0.27141224  1
  Pt  Pt313  1  0.57781544  0.28300317  0.27781621  1
  Pt  Pt314  1  0.52933894  0.57714475  0.18536788  1
  Pt  Pt315  1  0.34136677  0.28260360  0.31724495  1
  Pt  Pt316  1  0.65351829  0.28288673  0.32146169  1
  Pt  Pt317  1  0.67867494  0.35423357  0.27769237  1
  Pt  Pt318  1  0.41756137  0.49801890  0.18543667  1
  Pt  Pt319  1  0.58242311  0.50199997  0.18543541  1
  Pt  Pt320  1  0.24218944  0.42294295  0.31717737  1
  Pt  Pt321  1  0.47067102  0.42289854  0.18534559  1
