# generated using pymatgen
data_HPt143Au106
_symmetry_space_group_name_H-M   'P 1'
_cell_length_a   30.00000000
_cell_length_b   30.00000000
_cell_length_c   30.00000000
_cell_angle_alpha   90.00000000
_cell_angle_beta   90.00000000
_cell_angle_gamma   90.00000000
_symmetry_Int_Tables_number   1
_chemical_formula_structural   HPt143Au106
_chemical_formula_sum   'H1 Pt143 Au106'
_cell_volume   27000.00000000
_cell_formula_units_Z   1
loop_
 _symmetry_equiv_pos_site_id
 _symmetry_equiv_pos_as_xyz
  1  'x, y, z'
loop_
 _atom_site_type_symbol
 _atom_site_label
 _atom_site_symmetry_multiplicity
 _atom_site_fract_x
 _atom_site_fract_y
 _atom_site_fract_z
 _atom_site_occupancy
  H  H0  1  0.26301630  0.73905987  0.50010335  1
  Pt  Pt1  1  0.49997928  0.49996294  0.49978838  1
  Pt  Pt2  1  0.56527074  0.50038161  0.43498921  1
  Pt  Pt3  1  0.43415192  0.50054223  0.43514550  1
  Pt  Pt4  1  0.49955649  0.56593165  0.43518215  1
  Pt  Pt5  1  0.49982833  0.43484399  0.43488661  1
  Pt  Pt6  1  0.56510199  0.49963538  0.56493888  1
  Pt  Pt7  1  0.43443038  0.49980181  0.56468476  1
  Pt  Pt8  1  0.49961777  0.56562506  0.56475470  1
  Pt  Pt9  1  0.49980736  0.43430153  0.56468396  1
  Pt  Pt10  1  0.56531501  0.56540788  0.49982582  1
  Pt  Pt11  1  0.43383410  0.56602587  0.49984083  1
  Pt  Pt12  1  0.56551220  0.43429874  0.49973920  1
  Pt  Pt13  1  0.43452458  0.43448630  0.49965860  1
  Pt  Pt14  1  0.49981903  0.49899948  0.63034971  1
  Pt  Pt15  1  0.49977889  0.50043016  0.36905920  1
  Pt  Pt16  1  0.36814963  0.49996017  0.50010073  1
  Pt  Pt17  1  0.63152881  0.49975809  0.50010864  1
  Pt  Pt18  1  0.50003718  0.36827978  0.49981635  1
  Pt  Pt19  1  0.49970679  0.63211469  0.49982019  1
  Pt  Pt20  1  0.56506471  0.56555173  0.63015944  1
  Pt  Pt21  1  0.43491536  0.56548121  0.63041659  1
  Pt  Pt22  1  0.56540905  0.43412718  0.63096849  1
  Pt  Pt23  1  0.43437502  0.43407647  0.63094321  1
  Pt  Pt24  1  0.56539026  0.56590601  0.36974778  1
  Pt  Pt25  1  0.43438386  0.56589604  0.36947674  1
  Pt  Pt26  1  0.56550949  0.43468750  0.36985571  1
  Pt  Pt27  1  0.43431818  0.43465846  0.36981985  1
  Pt  Pt28  1  0.63098239  0.56581597  0.43478154  1
  Pt  Pt29  1  0.63092940  0.43436734  0.43462835  1
  Pt  Pt30  1  0.36869787  0.56619140  0.43485702  1
  Pt  Pt31  1  0.36893184  0.43438649  0.43474770  1
  Pt  Pt32  1  0.56569157  0.36887629  0.43452419  1
  Pt  Pt33  1  0.43428005  0.36891160  0.43456899  1
  Pt  Pt34  1  0.56560859  0.63129587  0.43483084  1
  Pt  Pt35  1  0.43385199  0.63151943  0.43491792  1
  Pt  Pt36  1  0.36941830  0.56593380  0.56551721  1
  Pt  Pt37  1  0.36905152  0.43404668  0.56534236  1
  Pt  Pt38  1  0.63034919  0.56556607  0.56558983  1
  Pt  Pt39  1  0.63079434  0.43408719  0.56556447  1
  Pt  Pt40  1  0.56532455  0.36901458  0.56575794  1
  Pt  Pt41  1  0.43444669  0.36906689  0.56558490  1
  Pt  Pt42  1  0.56569123  0.63102667  0.56473691  1
  Pt  Pt43  1  0.43380904  0.63128324  0.56475809  1
  Pt  Pt44  1  0.36839599  0.49926019  0.63158527  1
  Pt  Pt45  1  0.63180073  0.49944053  0.63149148  1
  Pt  Pt46  1  0.49985552  0.36805342  0.63204816  1
  Pt  Pt47  1  0.49995372  0.63304622  0.63041113  1
  Pt  Pt48  1  0.63171466  0.50022604  0.36872044  1
  Pt  Pt49  1  0.36834410  0.50024254  0.36844727  1
  Pt  Pt50  1  0.50002987  0.36825623  0.36872658  1
  Pt  Pt51  1  0.49985911  0.63192540  0.36853549  1
  Pt  Pt52  1  0.36807122  0.36790045  0.50005068  1
  Pt  Pt53  1  0.36611891  0.63436570  0.50017679  1
  Pt  Pt54  1  0.63172870  0.36802652  0.50015168  1
  Pt  Pt55  1  0.63197332  0.63230180  0.50005323  1
  Pt  Pt56  1  0.56591716  0.49845245  0.69572988  1
  Pt  Pt57  1  0.43421943  0.49820301  0.69599079  1
  Pt  Pt58  1  0.50013351  0.56645260  0.69345611  1
  Pt  Pt59  1  0.49999373  0.43291484  0.69752558  1
  Pt  Pt60  1  0.50006255  0.56631204  0.30358287  1
  Pt  Pt61  1  0.50003503  0.43397056  0.30400119  1
  Pt  Pt62  1  0.56607166  0.50009972  0.30392929  1
  Pt  Pt63  1  0.43393569  0.49999585  0.30366712  1
  Pt  Pt64  1  0.69676604  0.50019169  0.43419717  1
  Pt  Pt65  1  0.30324261  0.50028643  0.43412702  1
  Pt  Pt66  1  0.69634971  0.49993923  0.56606377  1
  Pt  Pt67  1  0.30362904  0.49989700  0.56613718  1
  Pt  Pt68  1  0.69669897  0.56639921  0.50036529  1
  Pt  Pt69  1  0.69665742  0.43368790  0.50010025  1
  Pt  Pt70  1  0.30321262  0.56657314  0.50045336  1
  Pt  Pt71  1  0.30303305  0.43376231  0.49999502  1
  Pt  Pt72  1  0.49976628  0.69731246  0.43410773  1
  Pt  Pt73  1  0.49994804  0.30314458  0.43394900  1
  Pt  Pt74  1  0.49977878  0.69704777  0.56562335  1
  Pt  Pt75  1  0.49978677  0.30317456  0.56595705  1
  Pt  Pt76  1  0.56623017  0.69739425  0.49989455  1
  Pt  Pt77  1  0.43330923  0.69774731  0.49994293  1
  Pt  Pt78  1  0.56610391  0.30309065  0.50023001  1
  Pt  Pt79  1  0.43374709  0.30291015  0.50009882  1
  Pt  Pt80  1  0.36870877  0.36866178  0.63121193  1
  Pt  Pt81  1  0.36927621  0.63160608  0.63184411  1
  Pt  Pt82  1  0.63106644  0.36865810  0.63126735  1
  Pt  Pt83  1  0.63123300  0.63183232  0.63077713  1
  Pt  Pt84  1  0.63132947  0.36852903  0.36908895  1
  Pt  Pt85  1  0.36865098  0.36848461  0.36917894  1
  Pt  Pt86  1  0.63139719  0.63157479  0.36928593  1
  Pt  Pt87  1  0.36893883  0.63125979  0.36830862  1
  Pt  Pt88  1  0.63250175  0.56536397  0.69656102  1
  Pt  Pt89  1  0.63293777  0.43495938  0.69809394  1
  Pt  Pt90  1  0.36806411  0.56492425  0.69703335  1
  Pt  Pt91  1  0.36691709  0.43476403  0.69804559  1
  Pt  Pt92  1  0.56492570  0.36702349  0.69773411  1
  Pt  Pt93  1  0.43494180  0.36693509  0.69783491  1
  Pt  Pt94  1  0.56512778  0.63376094  0.69705179  1
  Pt  Pt95  1  0.43538466  0.63385313  0.69779107  1
  Pt  Pt96  1  0.63220497  0.56532621  0.30290413  1
  Pt  Pt97  1  0.63219071  0.43492342  0.30293867  1
  Pt  Pt98  1  0.36773665  0.56496450  0.30230258  1
  Pt  Pt99  1  0.36781830  0.43481166  0.30294452  1
  Pt  Pt100  1  0.69688741  0.56542936  0.63233078  1
  Pt  Pt101  1  0.69792495  0.43476193  0.63253429  1
  Pt  Pt102  1  0.30352781  0.56464825  0.63305654  1
  Pt  Pt103  1  0.30178218  0.43448193  0.63241794  1
  Pt  Pt104  1  0.69759995  0.56531245  0.36778798  1
  Pt  Pt105  1  0.69754554  0.43499004  0.36795225  1
  Pt  Pt106  1  0.30242341  0.56478910  0.36701516  1
  Pt  Pt107  1  0.30245046  0.43498622  0.36803724  1
  Pt  Pt108  1  0.56520057  0.36781746  0.30294256  1
  Pt  Pt109  1  0.43487262  0.36777858  0.30299408  1
  Pt  Pt110  1  0.56519579  0.63251635  0.30288052  1
  Pt  Pt111  1  0.43509329  0.63261854  0.30229230  1
  Pt  Pt112  1  0.56543585  0.69779222  0.63180504  1
  Pt  Pt113  1  0.43527326  0.69782688  0.63300534  1
  Pt  Pt114  1  0.56477031  0.30201528  0.63229040  1
  Pt  Pt115  1  0.43480126  0.30211895  0.63221287  1
  Pt  Pt116  1  0.69760763  0.36723042  0.43497832  1
  Pt  Pt117  1  0.69778253  0.63287574  0.43531474  1
  Pt  Pt118  1  0.30229550  0.36712862  0.43520011  1
  Pt  Pt119  1  0.30233580  0.63254738  0.43398921  1
  Pt  Pt120  1  0.56501648  0.69770745  0.36820096  1
  Pt  Pt121  1  0.43548528  0.69791659  0.36719765  1
  Pt  Pt122  1  0.56521260  0.30213657  0.36772927  1
  Pt  Pt123  1  0.43481450  0.30207964  0.36775791  1
  Pt  Pt124  1  0.69769097  0.36735346  0.56538670  1
  Pt  Pt125  1  0.69764921  0.63270889  0.56504557  1
  Pt  Pt126  1  0.30230774  0.36734747  0.56514115  1
  Pt  Pt127  1  0.30247200  0.63244325  0.56665548  1
  Pt  Pt128  1  0.63267427  0.69819918  0.43521841  1
  Pt  Pt129  1  0.36781958  0.69834723  0.43369105  1
  Pt  Pt130  1  0.63257500  0.30185740  0.43506295  1
  Pt  Pt131  1  0.36736017  0.30194775  0.43517685  1
  Pt  Pt132  1  0.36790107  0.69843513  0.56662017  1
  Pt  Pt133  1  0.36776603  0.30207933  0.56501446  1
  Pt  Pt134  1  0.63245113  0.69830402  0.56492585  1
  Pt  Pt135  1  0.63215172  0.30216925  0.56538541  1
  Pt  Pt136  1  0.50018007  0.50085911  0.76008187  1
  Pt  Pt137  1  0.23939575  0.50029000  0.50023011  1
  Pt  Pt138  1  0.76044977  0.50003821  0.50029397  1
  Pt  Pt139  1  0.50005977  0.49999035  0.24028080  1
  Pt  Pt140  1  0.50001976  0.23902061  0.49945166  1
  Pt  Pt141  1  0.49965798  0.76098240  0.50033356  1
  Pt  Pt142  1  0.56336161  0.56469974  0.75828945  1
  Pt  Pt143  1  0.43727440  0.56444836  0.75863778  1
  Au  Au144  1  0.56526488  0.43467077  0.76830868  1
  Au  Au145  1  0.43474695  0.43444507  0.76834347  1
  Au  Au146  1  0.70069667  0.50020607  0.70101413  1
  Au  Au147  1  0.29932985  0.49954127  0.70121258  1
  Au  Au148  1  0.56524780  0.56519482  0.23180480  1
  Au  Au149  1  0.43499933  0.56519266  0.23180671  1
  Au  Au150  1  0.56528006  0.43488596  0.23185538  1
  Au  Au151  1  0.43491517  0.43467427  0.23186589  1
  Au  Au152  1  0.50072452  0.70126202  0.70109494  1
  Au  Au153  1  0.49985437  0.29872466  0.70093559  1
  Au  Au154  1  0.70059978  0.50005422  0.29973902  1
  Au  Au155  1  0.29922701  0.49948936  0.29913887  1
  Au  Au156  1  0.50057729  0.70106210  0.29921335  1
  Au  Au157  1  0.50001645  0.29932334  0.29972019  1
  Au  Au158  1  0.76814771  0.56544280  0.43493560  1
  Au  Au159  1  0.76821351  0.43477137  0.43487155  1
  Au  Au160  1  0.23182877  0.56529948  0.43473060  1
  Au  Au161  1  0.23167159  0.43474381  0.43506333  1
  Au  Au162  1  0.23172409  0.56540133  0.56579049  1
  Au  Au163  1  0.23164106  0.43476129  0.56520865  1
  Au  Au164  1  0.76831992  0.56555631  0.56536817  1
  Au  Au165  1  0.76828432  0.43475509  0.56543327  1
  Au  Au166  1  0.56541342  0.23160234  0.43469090  1
  Au  Au167  1  0.43449023  0.23149945  0.43480023  1
  Au  Au168  1  0.56521685  0.76907589  0.43540015  1
  Au  Au169  1  0.43486798  0.76921313  0.43430931  1
  Au  Au170  1  0.70118050  0.70124154  0.50020564  1
  Au  Au171  1  0.29965380  0.70106624  0.50026541  1
  Au  Au172  1  0.70052640  0.29912802  0.50038157  1
  Au  Au173  1  0.29903124  0.29881078  0.50041960  1
  Au  Au174  1  0.56444365  0.23090011  0.56525788  1
  Au  Au175  1  0.43512462  0.23085085  0.56459624  1
  Au  Au176  1  0.56552015  0.76942002  0.56479041  1
  Au  Au177  1  0.43456098  0.76959127  0.56583548  1
  Au  Au178  1  0.63124473  0.50120245  0.76399120  1
  Au  Au179  1  0.36886603  0.50102676  0.76420757  1
  Au  Au180  1  0.23624006  0.50020774  0.63244676  1
  Au  Au181  1  0.76349398  0.50050571  0.63223828  1
  Au  Au182  1  0.50003436  0.36687557  0.76473925  1
  Au  Au183  1  0.50031962  0.63133363  0.76440887  1
  Au  Au184  1  0.49951586  0.23551960  0.63237335  1
  Au  Au185  1  0.50049361  0.76404823  0.63208262  1
  Au  Au186  1  0.76413235  0.50018056  0.36771699  1
  Au  Au187  1  0.23583230  0.49978588  0.36767397  1
  Au  Au188  1  0.50002001  0.23554144  0.36770393  1
  Au  Au189  1  0.50059191  0.76464839  0.36765716  1
  Au  Au190  1  0.23560254  0.36716553  0.50019076  1
  Au  Au191  1  0.23670832  0.63223057  0.50042942  1
  Au  Au192  1  0.76405172  0.36766903  0.50015000  1
  Au  Au193  1  0.76448897  0.63289856  0.50022421  1
  Au  Au194  1  0.36784390  0.49972362  0.23608661  1
  Au  Au195  1  0.63228262  0.50008890  0.23653851  1
  Au  Au196  1  0.50013740  0.36773497  0.23659767  1
  Au  Au197  1  0.50027533  0.63243659  0.23606672  1
  Au  Au198  1  0.36709952  0.23518648  0.50010927  1
  Au  Au199  1  0.36804784  0.76438352  0.50023152  1
  Au  Au200  1  0.63197528  0.23550659  0.50056136  1
  Au  Au201  1  0.63311479  0.76488426  0.50005718  1
  Au  Au202  1  0.69908944  0.36859067  0.69895023  1
  Au  Au203  1  0.69863828  0.63242480  0.69970153  1
  Au  Au204  1  0.30023620  0.36843032  0.69865765  1
  Au  Au205  1  0.30172414  0.63069513  0.70135254  1
  Au  Au206  1  0.63115019  0.69963582  0.69980044  1
  Au  Au207  1  0.36897684  0.69920433  0.70132040  1
  Au  Au208  1  0.63114577  0.30018714  0.69910310  1
  Au  Au209  1  0.36862960  0.30010117  0.69886187  1
  Au  Au210  1  0.69933228  0.36890393  0.30078683  1
  Au  Au211  1  0.69899745  0.63162933  0.30100399  1
  Au  Au212  1  0.30063539  0.36889411  0.30096181  1
  Au  Au213  1  0.30067364  0.63085272  0.29981177  1
  Au  Au214  1  0.63096257  0.69968745  0.30086116  1
  Au  Au215  1  0.36928527  0.69953696  0.29984340  1
  Au  Au216  1  0.63111202  0.30068758  0.30070718  1
  Au  Au217  1  0.36888817  0.30060011  0.30072068  1
  Au  Au218  1  0.69943362  0.70000242  0.63126219  1
  Au  Au219  1  0.30108960  0.69901483  0.63357257  1
  Au  Au220  1  0.69939788  0.29992365  0.63109144  1
  Au  Au221  1  0.30056996  0.29984003  0.63092354  1
  Au  Au222  1  0.69937808  0.70005455  0.36903645  1
  Au  Au223  1  0.30123198  0.69910258  0.36724610  1
  Au  Au224  1  0.69948340  0.30032705  0.36894431  1
  Au  Au225  1  0.30047465  0.30029821  0.36896808  1
  Au  Au226  1  0.63057050  0.36889439  0.76173640  1
  Au  Au227  1  0.36905493  0.36883523  0.76154146  1
  Au  Au228  1  0.62955735  0.62952453  0.76244643  1
  Au  Au229  1  0.37128321  0.62882487  0.76342073  1
  Au  Au230  1  0.23745182  0.36828322  0.62984567  1
  Au  Au231  1  0.23887527  0.62973808  0.63237988  1
  Au  Au232  1  0.76210397  0.36892850  0.63067303  1
  Au  Au233  1  0.76149668  0.63079040  0.63112627  1
  Au  Au234  1  0.36973501  0.23737030  0.63005251  1
  Au  Au235  1  0.37009616  0.76200978  0.63260780  1
  Au  Au236  1  0.63018407  0.23754369  0.63045829  1
  Au  Au237  1  0.63066263  0.76230106  0.63083251  1
  Au  Au238  1  0.76190949  0.36944754  0.36936957  1
  Au  Au239  1  0.76179804  0.63094277  0.36944480  1
  Au  Au240  1  0.23814255  0.36922394  0.36966153  1
  Au  Au241  1  0.23812072  0.63038407  0.36878888  1
  Au  Au242  1  0.63064171  0.23778166  0.36911420  1
  Au  Au243  1  0.36916682  0.23778945  0.36931437  1
  Au  Au244  1  0.63040150  0.76241642  0.36958117  1
  Au  Au245  1  0.37003869  0.76243211  0.36825743  1
  Au  Au246  1  0.36929840  0.36928356  0.23845635  1
  Au  Au247  1  0.36949037  0.63045732  0.23785645  1
  Au  Au248  1  0.63067048  0.36940943  0.23831136  1
  Au  Au249  1  0.63048851  0.63087072  0.23830070  1
