# generated using pymatgen
data_HPt143Au106
_symmetry_space_group_name_H-M   'P 1'
_cell_length_a   30.00000000
_cell_length_b   30.00000000
_cell_length_c   30.00000000
_cell_angle_alpha   90.00000000
_cell_angle_beta   90.00000000
_cell_angle_gamma   90.00000000
_symmetry_Int_Tables_number   1
_chemical_formula_structural   HPt143Au106
_chemical_formula_sum   'H1 Pt143 Au106'
_cell_volume   27000.00000000
_cell_formula_units_Z   1
loop_
 _symmetry_equiv_pos_site_id
 _symmetry_equiv_pos_as_xyz
  1  'x, y, z'
loop_
 _atom_site_type_symbol
 _atom_site_label
 _atom_site_symmetry_multiplicity
 _atom_site_fract_x
 _atom_site_fract_y
 _atom_site_fract_z
 _atom_site_occupancy
  H  H0  1  0.63559426  0.65902290  0.80904288  1
  Pt  Pt1  1  0.50017213  0.50008039  0.50007103  1
  Pt  Pt2  1  0.56558324  0.50013215  0.43508200  1
  Pt  Pt3  1  0.43453390  0.50013843  0.43504221  1
  Pt  Pt4  1  0.50009480  0.56563137  0.43520589  1
  Pt  Pt5  1  0.50006031  0.43457827  0.43498342  1
  Pt  Pt6  1  0.56571776  0.49976544  0.56507252  1
  Pt  Pt7  1  0.43463056  0.49963716  0.56498056  1
  Pt  Pt8  1  0.50005973  0.56558837  0.56505785  1
  Pt  Pt9  1  0.50014304  0.43431244  0.56487052  1
  Pt  Pt10  1  0.56563473  0.56547931  0.50010968  1
  Pt  Pt11  1  0.43451236  0.56528697  0.49988664  1
  Pt  Pt12  1  0.56540899  0.43443469  0.49984174  1
  Pt  Pt13  1  0.43462227  0.43448442  0.49992334  1
  Pt  Pt14  1  0.50019137  0.49922898  0.63035177  1
  Pt  Pt15  1  0.49998003  0.50021295  0.36902868  1
  Pt  Pt16  1  0.36828445  0.49976348  0.50016795  1
  Pt  Pt17  1  0.63179434  0.49973240  0.50018222  1
  Pt  Pt18  1  0.49999180  0.36821494  0.50015967  1
  Pt  Pt19  1  0.49989413  0.63200256  0.49998436  1
  Pt  Pt20  1  0.56561173  0.56594260  0.63035487  1
  Pt  Pt21  1  0.43484399  0.56565630  0.63026058  1
  Pt  Pt22  1  0.56601488  0.43448305  0.63102351  1
  Pt  Pt23  1  0.43434129  0.43421273  0.63089723  1
  Pt  Pt24  1  0.56556983  0.56573981  0.36980631  1
  Pt  Pt25  1  0.43440980  0.56575578  0.36973557  1
  Pt  Pt26  1  0.56560544  0.43446848  0.36977514  1
  Pt  Pt27  1  0.43441196  0.43450253  0.36984619  1
  Pt  Pt28  1  0.63113129  0.56585318  0.43483369  1
  Pt  Pt29  1  0.63103872  0.43411947  0.43472036  1
  Pt  Pt30  1  0.36888252  0.56576078  0.43481145  1
  Pt  Pt31  1  0.36907031  0.43424187  0.43477241  1
  Pt  Pt32  1  0.56556335  0.36881972  0.43469761  1
  Pt  Pt33  1  0.43434046  0.36888540  0.43477931  1
  Pt  Pt34  1  0.56589255  0.63121775  0.43492702  1
  Pt  Pt35  1  0.43417359  0.63125016  0.43484514  1
  Pt  Pt36  1  0.36939772  0.56558511  0.56561491  1
  Pt  Pt37  1  0.36901405  0.43403205  0.56549381  1
  Pt  Pt38  1  0.63068263  0.56597893  0.56570587  1
  Pt  Pt39  1  0.63101333  0.43346306  0.56488288  1
  Pt  Pt40  1  0.56547839  0.36882560  0.56573627  1
  Pt  Pt41  1  0.43445452  0.36897825  0.56576086  1
  Pt  Pt42  1  0.56590910  0.63126011  0.56504354  1
  Pt  Pt43  1  0.43389626  0.63119304  0.56472502  1
  Pt  Pt44  1  0.36797029  0.49951287  0.63148642  1
  Pt  Pt45  1  0.63213460  0.49924518  0.63111170  1
  Pt  Pt46  1  0.50016807  0.36820791  0.63195091  1
  Pt  Pt47  1  0.49953990  0.63324796  0.63009509  1
  Pt  Pt48  1  0.63171265  0.50010269  0.36858634  1
  Pt  Pt49  1  0.36815373  0.50010218  0.36865820  1
  Pt  Pt50  1  0.50000711  0.36804600  0.36869062  1
  Pt  Pt51  1  0.49999339  0.63184792  0.36879588  1
  Pt  Pt52  1  0.36797244  0.36789676  0.50017986  1
  Pt  Pt53  1  0.36796610  0.63232615  0.50006702  1
  Pt  Pt54  1  0.63212667  0.36773112  0.49996737  1
  Pt  Pt55  1  0.63213191  0.63249393  0.50027306  1
  Pt  Pt56  1  0.56644585  0.49920997  0.69559443  1
  Pt  Pt57  1  0.43396320  0.49869932  0.69553701  1
  Pt  Pt58  1  0.50005330  0.56673757  0.69334629  1
  Pt  Pt59  1  0.50014283  0.43333065  0.69706887  1
  Pt  Pt60  1  0.49997316  0.56626404  0.30382324  1
  Pt  Pt61  1  0.50000833  0.43384917  0.30394939  1
  Pt  Pt62  1  0.56615924  0.50003025  0.30383344  1
  Pt  Pt63  1  0.43378568  0.50002854  0.30385658  1
  Pt  Pt64  1  0.69662432  0.50006380  0.43422584  1
  Pt  Pt65  1  0.30327827  0.50000710  0.43420725  1
  Pt  Pt66  1  0.69633286  0.50002816  0.56614133  1
  Pt  Pt67  1  0.30347848  0.49985820  0.56611869  1
  Pt  Pt68  1  0.69674552  0.56659927  0.50036850  1
  Pt  Pt69  1  0.69709292  0.43350530  0.49992490  1
  Pt  Pt70  1  0.30316691  0.56640802  0.50031373  1
  Pt  Pt71  1  0.30310329  0.43352239  0.50011106  1
  Pt  Pt72  1  0.50007510  0.69711070  0.43427162  1
  Pt  Pt73  1  0.49990489  0.30302494  0.43417595  1
  Pt  Pt74  1  0.50003191  0.69711246  0.56566879  1
  Pt  Pt75  1  0.50006238  0.30318265  0.56610448  1
  Pt  Pt76  1  0.56659849  0.69733564  0.50007123  1
  Pt  Pt77  1  0.43341955  0.69750997  0.49985043  1
  Pt  Pt78  1  0.56610466  0.30282103  0.50016969  1
  Pt  Pt79  1  0.43368948  0.30298373  0.50026529  1
  Pt  Pt80  1  0.36862540  0.36859647  0.63109129  1
  Pt  Pt81  1  0.36865060  0.63193786  0.63083110  1
  Pt  Pt82  1  0.63125158  0.36859126  0.63105556  1
  Pt  Pt83  1  0.63154901  0.63253020  0.63098789  1
  Pt  Pt84  1  0.63128252  0.36845965  0.36925605  1
  Pt  Pt85  1  0.36881814  0.36837775  0.36917589  1
  Pt  Pt86  1  0.63144009  0.63155290  0.36922149  1
  Pt  Pt87  1  0.36860317  0.63159158  0.36931174  1
  Pt  Pt88  1  0.63206241  0.56729882  0.69774120  1
  Pt  Pt89  1  0.63319236  0.43488341  0.69801864  1
  Pt  Pt90  1  0.36721054  0.56541808  0.69646296  1
  Pt  Pt91  1  0.36676931  0.43485589  0.69781939  1
  Pt  Pt92  1  0.56509359  0.36700242  0.69736768  1
  Pt  Pt93  1  0.43491244  0.36713665  0.69730150  1
  Pt  Pt94  1  0.56543483  0.63338950  0.69731497  1
  Pt  Pt95  1  0.43482760  0.63401179  0.69706613  1
  Pt  Pt96  1  0.63235356  0.56524996  0.30290915  1
  Pt  Pt97  1  0.63236084  0.43488128  0.30303358  1
  Pt  Pt98  1  0.36767163  0.56525242  0.30288473  1
  Pt  Pt99  1  0.36759922  0.43480546  0.30293604  1
  Pt  Pt100  1  0.69638355  0.56547689  0.63266957  1
  Pt  Pt101  1  0.69802607  0.43441885  0.63241200  1
  Pt  Pt102  1  0.30287414  0.56547635  0.63233717  1
  Pt  Pt103  1  0.30160150  0.43440367  0.63242720  1
  Pt  Pt104  1  0.69755447  0.56527561  0.36784448  1
  Pt  Pt105  1  0.69771031  0.43481511  0.36805493  1
  Pt  Pt106  1  0.30239568  0.56533398  0.36783209  1
  Pt  Pt107  1  0.30244104  0.43480694  0.36805433  1
  Pt  Pt108  1  0.56506550  0.36758492  0.30302424  1
  Pt  Pt109  1  0.43490731  0.36753855  0.30300221  1
  Pt  Pt110  1  0.56514451  0.63250913  0.30295916  1
  Pt  Pt111  1  0.43483581  0.63260763  0.30298456  1
  Pt  Pt112  1  0.56524860  0.69787889  0.63217949  1
  Pt  Pt113  1  0.43440318  0.69802953  0.63227716  1
  Pt  Pt114  1  0.56516582  0.30165500  0.63233921  1
  Pt  Pt115  1  0.43476987  0.30175012  0.63213837  1
  Pt  Pt116  1  0.69801448  0.36687428  0.43505986  1
  Pt  Pt117  1  0.69788011  0.63297242  0.43530267  1
  Pt  Pt118  1  0.30230480  0.36709424  0.43513928  1
  Pt  Pt119  1  0.30211693  0.63290466  0.43528645  1
  Pt  Pt120  1  0.56503668  0.69777509  0.36808526  1
  Pt  Pt121  1  0.43497171  0.69784902  0.36813755  1
  Pt  Pt122  1  0.56511105  0.30171788  0.36813370  1
  Pt  Pt123  1  0.43491223  0.30200622  0.36793808  1
  Pt  Pt124  1  0.69799758  0.36703482  0.56500082  1
  Pt  Pt125  1  0.69794210  0.63287149  0.56522715  1
  Pt  Pt126  1  0.30210543  0.36723400  0.56516908  1
  Pt  Pt127  1  0.30221450  0.63264951  0.56494097  1
  Pt  Pt128  1  0.63285497  0.69819200  0.43516385  1
  Pt  Pt129  1  0.36707698  0.69831669  0.43516233  1
  Pt  Pt130  1  0.63250337  0.30207558  0.43534634  1
  Pt  Pt131  1  0.36742173  0.30191460  0.43525044  1
  Pt  Pt132  1  0.36725902  0.69846718  0.56493626  1
  Pt  Pt133  1  0.36748667  0.30203492  0.56508158  1
  Pt  Pt134  1  0.63271843  0.69860082  0.56520639  1
  Pt  Pt135  1  0.63236905  0.30204632  0.56500428  1
  Pt  Pt136  1  0.49990347  0.50118502  0.75947595  1
  Pt  Pt137  1  0.23974221  0.49997441  0.50007214  1
  Pt  Pt138  1  0.76017985  0.50001714  0.50033174  1
  Pt  Pt139  1  0.49997862  0.50005161  0.24051027  1
  Pt  Pt140  1  0.49984882  0.23904032  0.49993322  1
  Pt  Pt141  1  0.50000373  0.76069501  0.50050622  1
  Pt  Pt142  1  0.56364022  0.56493928  0.75834160  1
  Pt  Pt143  1  0.43641436  0.56471257  0.75823049  1
  Au  Au144  1  0.56519887  0.43487448  0.76792037  1
  Au  Au145  1  0.43483682  0.43482609  0.76796945  1
  Au  Au146  1  0.69983216  0.50067732  0.70055166  1
  Au  Au147  1  0.29907728  0.49980206  0.70073965  1
  Au  Au148  1  0.56516509  0.56526427  0.23200643  1
  Au  Au149  1  0.43475768  0.56516529  0.23198251  1
  Au  Au150  1  0.56513003  0.43474769  0.23194562  1
  Au  Au151  1  0.43479167  0.43478504  0.23215484  1
  Au  Au152  1  0.50043186  0.70098442  0.70084412  1
  Au  Au153  1  0.49970440  0.29862922  0.70032639  1
  Au  Au154  1  0.70078969  0.49994470  0.29968412  1
  Au  Au155  1  0.29925700  0.49997543  0.29967347  1
  Au  Au156  1  0.50001092  0.70090623  0.29980678  1
  Au  Au157  1  0.50014413  0.29898671  0.29967241  1
  Au  Au158  1  0.76815745  0.56547268  0.43506291  1
  Au  Au159  1  0.76835919  0.43455816  0.43496903  1
  Au  Au160  1  0.23176119  0.56551348  0.43489556  1
  Au  Au161  1  0.23165017  0.43459300  0.43497415  1
  Au  Au162  1  0.23142241  0.56545286  0.56511549  1
  Au  Au163  1  0.23153210  0.43461558  0.56530928  1
  Au  Au164  1  0.76840244  0.56547850  0.56530061  1
  Au  Au165  1  0.76837074  0.43458730  0.56534692  1
  Au  Au166  1  0.56513732  0.23112422  0.43523519  1
  Au  Au167  1  0.43463072  0.23136648  0.43508387  1
  Au  Au168  1  0.56533372  0.76876704  0.43506974  1
  Au  Au169  1  0.43469532  0.76877496  0.43499431  1
  Au  Au170  1  0.70120183  0.70127310  0.50029939  1
  Au  Au171  1  0.29874734  0.70124137  0.50013174  1
  Au  Au172  1  0.70111643  0.29869789  0.50023337  1
  Au  Au173  1  0.29893720  0.29879215  0.50026880  1
  Au  Au174  1  0.56513612  0.23101191  0.56489409  1
  Au  Au175  1  0.43465199  0.23126264  0.56504999  1
  Au  Au176  1  0.56569203  0.76951009  0.56532657  1
  Au  Au177  1  0.43411518  0.76942735  0.56510707  1
  Au  Au178  1  0.63136006  0.50130896  0.76393649  1
  Au  Au179  1  0.36856190  0.50113663  0.76365966  1
  Au  Au180  1  0.23614300  0.50047137  0.63211868  1
  Au  Au181  1  0.76343817  0.50050511  0.63211599  1
  Au  Au182  1  0.49999971  0.36693878  0.76390978  1
  Au  Au183  1  0.49987042  0.63108348  0.76404444  1
  Au  Au184  1  0.49993305  0.23514731  0.63199648  1
  Au  Au185  1  0.49968519  0.76393146  0.63191056  1
  Au  Au186  1  0.76388906  0.50022173  0.36800687  1
  Au  Au187  1  0.23611461  0.50021748  0.36790058  1
  Au  Au188  1  0.49988380  0.23534299  0.36782288  1
  Au  Au189  1  0.50011751  0.76463048  0.36784473  1
  Au  Au190  1  0.23546531  0.36712431  0.50012734  1
  Au  Au191  1  0.23523471  0.63295982  0.50006634  1
  Au  Au192  1  0.76480361  0.36709862  0.50012630  1
  Au  Au193  1  0.76461256  0.63292547  0.50023360  1
  Au  Au194  1  0.36759038  0.49999755  0.23652824  1
  Au  Au195  1  0.63237125  0.49999872  0.23655334  1
  Au  Au196  1  0.50001308  0.36756581  0.23657162  1
  Au  Au197  1  0.49999385  0.63243516  0.23657368  1
  Au  Au198  1  0.36707419  0.23521809  0.50014809  1
  Au  Au199  1  0.36681979  0.76506786  0.49997045  1
  Au  Au200  1  0.63286462  0.23519960  0.50012735  1
  Au  Au201  1  0.63300164  0.76490762  0.50006866  1
  Au  Au202  1  0.69935512  0.36796167  0.69871933  1
  Au  Au203  1  0.69904332  0.63171987  0.69990851  1
  Au  Au204  1  0.30024189  0.36814131  0.69867479  1
  Au  Au205  1  0.30093599  0.63267658  0.69949095  1
  Au  Au206  1  0.63099218  0.69894537  0.70029526  1
  Au  Au207  1  0.36809849  0.69989883  0.70007580  1
  Au  Au208  1  0.63127616  0.29989996  0.69886677  1
  Au  Au209  1  0.36866052  0.30014646  0.69868878  1
  Au  Au210  1  0.69947628  0.36891497  0.30114857  1
  Au  Au211  1  0.69938756  0.63159378  0.30121699  1
  Au  Au212  1  0.30078380  0.36841980  0.30145172  1
  Au  Au213  1  0.30110179  0.63189010  0.30132100  1
  Au  Au214  1  0.63101200  0.69963889  0.30092990  1
  Au  Au215  1  0.36918749  0.70002809  0.30078992  1
  Au  Au216  1  0.63121858  0.30061507  0.30172285  1
  Au  Au217  1  0.36901032  0.30013028  0.30085330  1
  Au  Au218  1  0.69986289  0.70009731  0.63153320  1
  Au  Au219  1  0.30030633  0.70012324  0.63099909  1
  Au  Au220  1  0.69962079  0.29978282  0.63083107  1
  Au  Au221  1  0.30019843  0.29976144  0.63087943  1
  Au  Au222  1  0.69952553  0.69996889  0.36900789  1
  Au  Au223  1  0.30049477  0.69998661  0.36907089  1
  Au  Au224  1  0.69956257  0.29999413  0.36915336  1
  Au  Au225  1  0.30052301  0.29997985  0.36908009  1
  Au  Au226  1  0.63053796  0.36891257  0.76155193  1
  Au  Au227  1  0.36931742  0.36903038  0.76142896  1
  Au  Au228  1  0.63064781  0.62913606  0.76544303  1
  Au  Au229  1  0.37038292  0.62950910  0.76220177  1
  Au  Au230  1  0.23727682  0.36817655  0.62995460  1
  Au  Au231  1  0.23829533  0.63074702  0.63064940  1
  Au  Au232  1  0.76233000  0.36846113  0.63026509  1
  Au  Au233  1  0.76173241  0.63048938  0.63094332  1
  Au  Au234  1  0.36868564  0.23725939  0.62998887  1
  Au  Au235  1  0.36919421  0.76230341  0.63114184  1
  Au  Au236  1  0.63101650  0.23725134  0.62988606  1
  Au  Au237  1  0.63069463  0.76200690  0.63145129  1
  Au  Au238  1  0.76208005  0.36895614  0.36951375  1
  Au  Au239  1  0.76201430  0.63093277  0.36960262  1
  Au  Au240  1  0.23805095  0.36898219  0.36968922  1
  Au  Au241  1  0.23798489  0.63097951  0.36950208  1
  Au  Au242  1  0.63098733  0.23721055  0.37038037  1
  Au  Au243  1  0.36935307  0.23764175  0.36956378  1
  Au  Au244  1  0.63060916  0.76237803  0.36953163  1
  Au  Au245  1  0.36939287  0.76243470  0.36949183  1
  Au  Au246  1  0.36930254  0.36917235  0.23858566  1
  Au  Au247  1  0.36945679  0.63078351  0.23844091  1
  Au  Au248  1  0.63065073  0.36931681  0.23870650  1
  Au  Au249  1  0.63072525  0.63073041  0.23853591  1
