# generated using pymatgen
data_HPt143Au106
_symmetry_space_group_name_H-M   'P 1'
_cell_length_a   30.00000000
_cell_length_b   30.00000000
_cell_length_c   30.00000000
_cell_angle_alpha   90.00000000
_cell_angle_beta   90.00000000
_cell_angle_gamma   90.00000000
_symmetry_Int_Tables_number   1
_chemical_formula_structural   HPt143Au106
_chemical_formula_sum   'H1 Pt143 Au106'
_cell_volume   27000.00000000
_cell_formula_units_Z   1
loop_
 _symmetry_equiv_pos_site_id
 _symmetry_equiv_pos_as_xyz
  1  'x, y, z'
loop_
 _atom_site_type_symbol
 _atom_site_label
 _atom_site_symmetry_multiplicity
 _atom_site_fract_x
 _atom_site_fract_y
 _atom_site_fract_z
 _atom_site_occupancy
  H  H0  1  0.26365023  0.73644312  0.35095070  1
  Pt  Pt1  1  0.49987089  0.50008604  0.49959385  1
  Pt  Pt2  1  0.56559518  0.50012888  0.43492820  1
  Pt  Pt3  1  0.43443024  0.50039910  0.43445013  1
  Pt  Pt4  1  0.49981103  0.56576751  0.43448185  1
  Pt  Pt5  1  0.49998036  0.43449467  0.43483046  1
  Pt  Pt6  1  0.56521407  0.49961764  0.56480986  1
  Pt  Pt7  1  0.43461929  0.49962002  0.56478174  1
  Pt  Pt8  1  0.49990654  0.56549232  0.56481819  1
  Pt  Pt9  1  0.49984258  0.43425582  0.56464391  1
  Pt  Pt10  1  0.56527056  0.56543967  0.49968000  1
  Pt  Pt11  1  0.43434011  0.56561378  0.49943395  1
  Pt  Pt12  1  0.56536017  0.43434121  0.49972598  1
  Pt  Pt13  1  0.43449554  0.43460347  0.49960655  1
  Pt  Pt14  1  0.49996183  0.49896407  0.63030255  1
  Pt  Pt15  1  0.50063359  0.49961805  0.36885923  1
  Pt  Pt16  1  0.36856370  0.49991476  0.49985029  1
  Pt  Pt17  1  0.63157625  0.49982219  0.50017213  1
  Pt  Pt18  1  0.49981597  0.36829766  0.49998646  1
  Pt  Pt19  1  0.49991058  0.63179630  0.49957617  1
  Pt  Pt20  1  0.56507485  0.56553415  0.63024264  1
  Pt  Pt21  1  0.43499246  0.56548741  0.63026105  1
  Pt  Pt22  1  0.56540654  0.43416030  0.63108918  1
  Pt  Pt23  1  0.43438246  0.43414600  0.63112050  1
  Pt  Pt24  1  0.56565938  0.56565119  0.36947838  1
  Pt  Pt25  1  0.43452195  0.56591681  0.36964166  1
  Pt  Pt26  1  0.56589672  0.43416423  0.36958571  1
  Pt  Pt27  1  0.43460322  0.43444247  0.36954379  1
  Pt  Pt28  1  0.63112982  0.56577128  0.43473813  1
  Pt  Pt29  1  0.63101868  0.43419652  0.43490462  1
  Pt  Pt30  1  0.36877206  0.56629211  0.43403681  1
  Pt  Pt31  1  0.36913161  0.43422104  0.43442578  1
  Pt  Pt32  1  0.56567752  0.36876099  0.43483328  1
  Pt  Pt33  1  0.43427254  0.36880703  0.43452790  1
  Pt  Pt34  1  0.56589715  0.63116113  0.43457539  1
  Pt  Pt35  1  0.43381180  0.63150018  0.43401710  1
  Pt  Pt36  1  0.36971315  0.56559209  0.56564567  1
  Pt  Pt37  1  0.36913377  0.43416223  0.56543219  1
  Pt  Pt38  1  0.63034313  0.56566129  0.56552925  1
  Pt  Pt39  1  0.63073846  0.43406525  0.56546526  1
  Pt  Pt40  1  0.56531509  0.36906549  0.56573656  1
  Pt  Pt41  1  0.43431151  0.36911430  0.56567405  1
  Pt  Pt42  1  0.56568481  0.63106001  0.56478014  1
  Pt  Pt43  1  0.43430484  0.63106932  0.56486382  1
  Pt  Pt44  1  0.36828644  0.49930479  0.63159253  1
  Pt  Pt45  1  0.63157765  0.49942977  0.63152655  1
  Pt  Pt46  1  0.49987566  0.36825239  0.63212456  1
  Pt  Pt47  1  0.50008870  0.63320517  0.63036195  1
  Pt  Pt48  1  0.63180485  0.49996844  0.36859353  1
  Pt  Pt49  1  0.36821949  0.49995411  0.36853735  1
  Pt  Pt50  1  0.50012928  0.36805440  0.36858705  1
  Pt  Pt51  1  0.50028859  0.63220160  0.36853335  1
  Pt  Pt52  1  0.36803033  0.36804236  0.50006583  1
  Pt  Pt53  1  0.36790877  0.63235804  0.49992624  1
  Pt  Pt54  1  0.63202303  0.36773129  0.50024689  1
  Pt  Pt55  1  0.63201192  0.63227144  0.50001783  1
  Pt  Pt56  1  0.56578248  0.49856471  0.69589931  1
  Pt  Pt57  1  0.43421052  0.49859939  0.69592214  1
  Pt  Pt58  1  0.50002142  0.56667055  0.69347521  1
  Pt  Pt59  1  0.49994434  0.43309618  0.69762632  1
  Pt  Pt60  1  0.49991912  0.56629726  0.30381066  1
  Pt  Pt61  1  0.50009323  0.43370431  0.30385248  1
  Pt  Pt62  1  0.56628154  0.49992843  0.30378187  1
  Pt  Pt63  1  0.43399396  0.50023537  0.30392942  1
  Pt  Pt64  1  0.69671691  0.50000576  0.43440505  1
  Pt  Pt65  1  0.30345265  0.50007453  0.43403482  1
  Pt  Pt66  1  0.69622598  0.49992632  0.56617422  1
  Pt  Pt67  1  0.30368141  0.49980208  0.56617655  1
  Pt  Pt68  1  0.69669340  0.56648201  0.50041785  1
  Pt  Pt69  1  0.69684299  0.43353050  0.50020682  1
  Pt  Pt70  1  0.30362929  0.56634851  0.50037007  1
  Pt  Pt71  1  0.30328903  0.43371796  0.49999370  1
  Pt  Pt72  1  0.50010139  0.69710958  0.43397674  1
  Pt  Pt73  1  0.49993514  0.30310424  0.43419074  1
  Pt  Pt74  1  0.50007658  0.69712861  0.56559687  1
  Pt  Pt75  1  0.49980995  0.30333381  0.56611097  1
  Pt  Pt76  1  0.56647601  0.69726189  0.49978901  1
  Pt  Pt77  1  0.43358648  0.69705284  0.49978064  1
  Pt  Pt78  1  0.56611371  0.30295090  0.50028363  1
  Pt  Pt79  1  0.43359557  0.30310702  0.50020325  1
  Pt  Pt80  1  0.36875562  0.36871577  0.63139459  1
  Pt  Pt81  1  0.36916918  0.63176644  0.63118385  1
  Pt  Pt82  1  0.63098335  0.36877055  0.63144280  1
  Pt  Pt83  1  0.63115717  0.63182089  0.63089545  1
  Pt  Pt84  1  0.63101197  0.36866218  0.36906956  1
  Pt  Pt85  1  0.36875800  0.36837539  0.36899822  1
  Pt  Pt86  1  0.63160303  0.63142482  0.36914406  1
  Pt  Pt87  1  0.36697631  0.63313964  0.36836894  1
  Pt  Pt88  1  0.63221066  0.56529394  0.69668314  1
  Pt  Pt89  1  0.63274667  0.43505286  0.69832665  1
  Pt  Pt90  1  0.36799274  0.56519100  0.69676975  1
  Pt  Pt91  1  0.36690371  0.43499988  0.69815502  1
  Pt  Pt92  1  0.56491097  0.36704763  0.69793673  1
  Pt  Pt93  1  0.43486136  0.36712151  0.69797626  1
  Pt  Pt94  1  0.56501654  0.63392724  0.69710888  1
  Pt  Pt95  1  0.43534784  0.63400270  0.69731420  1
  Pt  Pt96  1  0.63234583  0.56526988  0.30284455  1
  Pt  Pt97  1  0.63241057  0.43466760  0.30240893  1
  Pt  Pt98  1  0.36847150  0.56538741  0.30282250  1
  Pt  Pt99  1  0.36799566  0.43479965  0.30278202  1
  Pt  Pt100  1  0.69667495  0.56537770  0.63239162  1
  Pt  Pt101  1  0.69777340  0.43473469  0.63274054  1
  Pt  Pt102  1  0.30357514  0.56505090  0.63262487  1
  Pt  Pt103  1  0.30179311  0.43461001  0.63250457  1
  Pt  Pt104  1  0.69768335  0.56510128  0.36779757  1
  Pt  Pt105  1  0.69725870  0.43495799  0.36808942  1
  Pt  Pt106  1  0.30270072  0.56487537  0.36734233  1
  Pt  Pt107  1  0.30248169  0.43480103  0.36771344  1
  Pt  Pt108  1  0.56520817  0.36738848  0.30238509  1
  Pt  Pt109  1  0.43490469  0.36753823  0.30290818  1
  Pt  Pt110  1  0.56523356  0.63246065  0.30280329  1
  Pt  Pt111  1  0.43497060  0.63197404  0.30270965  1
  Pt  Pt112  1  0.56537376  0.69800250  0.63194967  1
  Pt  Pt113  1  0.43490804  0.69811996  0.63230266  1
  Pt  Pt114  1  0.56476294  0.30213587  0.63248253  1
  Pt  Pt115  1  0.43480111  0.30223654  0.63246478  1
  Pt  Pt116  1  0.69766597  0.36709741  0.43539713  1
  Pt  Pt117  1  0.69806401  0.63272198  0.43526327  1
  Pt  Pt118  1  0.30237456  0.36721867  0.43508211  1
  Pt  Pt119  1  0.30216569  0.63320346  0.43478560  1
  Pt  Pt120  1  0.56534687  0.69783545  0.36788843  1
  Pt  Pt121  1  0.43536494  0.69762839  0.36741011  1
  Pt  Pt122  1  0.56492150  0.30232121  0.36785747  1
  Pt  Pt123  1  0.43488904  0.30188489  0.36772674  1
  Pt  Pt124  1  0.69756818  0.36747895  0.56555343  1
  Pt  Pt125  1  0.69775121  0.63273717  0.56513196  1
  Pt  Pt126  1  0.30236093  0.36748470  0.56518715  1
  Pt  Pt127  1  0.30244644  0.63240743  0.56540829  1
  Pt  Pt128  1  0.63298162  0.69805963  0.43510076  1
  Pt  Pt129  1  0.36671686  0.69801582  0.43461034  1
  Pt  Pt130  1  0.63253567  0.30182872  0.43541441  1
  Pt  Pt131  1  0.36735895  0.30188655  0.43512946  1
  Pt  Pt132  1  0.36774163  0.69812619  0.56522601  1
  Pt  Pt133  1  0.36753967  0.30217636  0.56519152  1
  Pt  Pt134  1  0.63251157  0.69819853  0.56494940  1
  Pt  Pt135  1  0.63201896  0.30222660  0.56539664  1
  Pt  Pt136  1  0.50002622  0.50109132  0.76017205  1
  Pt  Pt137  1  0.23994179  0.50020698  0.50013955  1
  Pt  Pt138  1  0.76032255  0.50015966  0.50047507  1
  Pt  Pt139  1  0.50033420  0.49978823  0.24033467  1
  Pt  Pt140  1  0.49963268  0.23908294  0.49974867  1
  Pt  Pt141  1  0.49979690  0.76066268  0.49998587  1
  Pt  Pt142  1  0.56312811  0.56485523  0.75841217  1
  Pt  Pt143  1  0.43714922  0.56491873  0.75856707  1
  Au  Au144  1  0.56518033  0.43474433  0.76845024  1
  Au  Au145  1  0.43472090  0.43464973  0.76838136  1
  Au  Au146  1  0.70045875  0.50015486  0.70096484  1
  Au  Au147  1  0.29933774  0.49977303  0.70117442  1
  Au  Au148  1  0.56508436  0.56532358  0.23191206  1
  Au  Au149  1  0.43564972  0.56466879  0.23107806  1
  Au  Au150  1  0.56525839  0.43458532  0.23181168  1
  Au  Au151  1  0.43486865  0.43484631  0.23196445  1
  Au  Au152  1  0.50034958  0.70145456  0.70077554  1
  Au  Au153  1  0.49972232  0.29880915  0.70094162  1
  Au  Au154  1  0.70060791  0.49993440  0.29965051  1
  Au  Au155  1  0.29975159  0.49995393  0.29932521  1
  Au  Au156  1  0.50024958  0.70097749  0.29932208  1
  Au  Au157  1  0.49984378  0.29897743  0.29960634  1
  Au  Au158  1  0.76814149  0.56530884  0.43497316  1
  Au  Au159  1  0.76867182  0.43466130  0.43563808  1
  Au  Au160  1  0.23213308  0.56524552  0.43481275  1
  Au  Au161  1  0.23181719  0.43468390  0.43490835  1
  Au  Au162  1  0.23176262  0.56545155  0.56553159  1
  Au  Au163  1  0.23171802  0.43484424  0.56531726  1
  Au  Au164  1  0.76832543  0.56566325  0.56553461  1
  Au  Au165  1  0.76830603  0.43477870  0.56557748  1
  Au  Au166  1  0.56541130  0.23108708  0.43560792  1
  Au  Au167  1  0.43446063  0.23149157  0.43484756  1
  Au  Au168  1  0.56563246  0.76882495  0.43506434  1
  Au  Au169  1  0.43453620  0.76834440  0.43453155  1
  Au  Au170  1  0.70121620  0.70116850  0.50025550  1
  Au  Au171  1  0.29899459  0.70105077  0.50062410  1
  Au  Au172  1  0.70100422  0.29887747  0.50080489  1
  Au  Au173  1  0.29905332  0.29888047  0.50040489  1
  Au  Au174  1  0.56447908  0.23092969  0.56487288  1
  Au  Au175  1  0.43481110  0.23138023  0.56514013  1
  Au  Au176  1  0.56553255  0.76945224  0.56475128  1
  Au  Au177  1  0.43466300  0.76932849  0.56514705  1
  Au  Au178  1  0.63117746  0.50135536  0.76432069  1
  Au  Au179  1  0.36889567  0.50135458  0.76425454  1
  Au  Au180  1  0.23640759  0.50055246  0.63241048  1
  Au  Au181  1  0.76345383  0.50054255  0.63224466  1
  Au  Au182  1  0.49999912  0.36697067  0.76484539  1
  Au  Au183  1  0.50033976  0.63185563  0.76450728  1
  Au  Au184  1  0.49975293  0.23564422  0.63239012  1
  Au  Au185  1  0.50034260  0.76444838  0.63191682  1
  Au  Au186  1  0.76391255  0.49959997  0.36799421  1
  Au  Au187  1  0.23612585  0.49981116  0.36762232  1
  Au  Au188  1  0.50038020  0.23546125  0.36810901  1
  Au  Au189  1  0.50051309  0.76457222  0.36780516  1
  Au  Au190  1  0.23579527  0.36736084  0.50007737  1
  Au  Au191  1  0.23603025  0.63251323  0.50003291  1
  Au  Au192  1  0.76437517  0.36722724  0.50065933  1
  Au  Au193  1  0.76463443  0.63285056  0.50020967  1
  Au  Au194  1  0.36796613  0.50022388  0.23627475  1
  Au  Au195  1  0.63219270  0.50026393  0.23638948  1
  Au  Au196  1  0.49978684  0.36745742  0.23639572  1
  Au  Au197  1  0.50011886  0.63253974  0.23615707  1
  Au  Au198  1  0.36726396  0.23532414  0.50023259  1
  Au  Au199  1  0.36731526  0.76435514  0.49995868  1
  Au  Au200  1  0.63270270  0.23540385  0.50070335  1
  Au  Au201  1  0.63315146  0.76481916  0.50000464  1
  Au  Au202  1  0.69911584  0.36869921  0.69927510  1
  Au  Au203  1  0.69855225  0.63196794  0.70000803  1
  Au  Au204  1  0.30031629  0.36843555  0.69853296  1
  Au  Au205  1  0.30162759  0.63170975  0.70036124  1
  Au  Au206  1  0.63125193  0.69958949  0.69985748  1
  Au  Au207  1  0.36884783  0.69944828  0.70022592  1
  Au  Au208  1  0.63106504  0.30010802  0.69914450  1
  Au  Au209  1  0.36874493  0.30013869  0.69928023  1
  Au  Au210  1  0.69929518  0.36898979  0.30048301  1
  Au  Au211  1  0.69951232  0.63109192  0.30072101  1
  Au  Au212  1  0.30075628  0.36889577  0.30071605  1
  Au  Au213  1  0.30095458  0.62950255  0.29841714  1
  Au  Au214  1  0.63110064  0.69952114  0.30072738  1
  Au  Au215  1  0.37056710  0.69907214  0.29845886  1
  Au  Au216  1  0.63093350  0.30045517  0.30037659  1
  Au  Au217  1  0.36890498  0.30044663  0.30068346  1
  Au  Au218  1  0.69937799  0.69989630  0.63134054  1
  Au  Au219  1  0.30094602  0.69951125  0.63145240  1
  Au  Au220  1  0.69920287  0.29998882  0.63106953  1
  Au  Au221  1  0.30049009  0.29993578  0.63097061  1
  Au  Au222  1  0.69958666  0.69952870  0.36891854  1
  Au  Au223  1  0.29979313  0.70013253  0.36484214  1
  Au  Au224  1  0.69835966  0.30107298  0.36839494  1
  Au  Au225  1  0.30050174  0.30040811  0.36892899  1
  Au  Au226  1  0.63046117  0.36891118  0.76194043  1
  Au  Au227  1  0.36885592  0.36916028  0.76160118  1
  Au  Au228  1  0.62924050  0.62957962  0.76256969  1
  Au  Au229  1  0.37105694  0.62931088  0.76281219  1
  Au  Au230  1  0.23747045  0.36831923  0.62980808  1
  Au  Au231  1  0.23899657  0.63006617  0.63187068  1
  Au  Au232  1  0.76190783  0.36876342  0.63069207  1
  Au  Au233  1  0.76130240  0.63064245  0.63144936  1
  Au  Au234  1  0.36952501  0.23760551  0.63050677  1
  Au  Au235  1  0.36942966  0.76215465  0.63110342  1
  Au  Au236  1  0.62986749  0.23742970  0.63018835  1
  Au  Au237  1  0.63066897  0.76229508  0.63082369  1
  Au  Au238  1  0.76145132  0.36993875  0.36959029  1
  Au  Au239  1  0.76205382  0.63065707  0.36939876  1
  Au  Au240  1  0.23814631  0.36926002  0.36946597  1
  Au  Au241  1  0.23903992  0.62959037  0.36837636  1
  Au  Au242  1  0.62962636  0.23790715  0.36921401  1
  Au  Au243  1  0.36912187  0.23774932  0.36931747  1
  Au  Au244  1  0.63082771  0.76220902  0.36939812  1
  Au  Au245  1  0.37019102  0.76096103  0.36813019  1
  Au  Au246  1  0.36947606  0.36928952  0.23826929  1
  Au  Au247  1  0.37024571  0.62974960  0.23691123  1
  Au  Au248  1  0.63074199  0.36915881  0.23778363  1
  Au  Au249  1  0.63062434  0.63068926  0.23825732  1
