# generated using pymatgen
data_Pt143Au106
_symmetry_space_group_name_H-M   'P 1'
_cell_length_a   30.00000000
_cell_length_b   30.00000000
_cell_length_c   30.00000000
_cell_angle_alpha   90.00000000
_cell_angle_beta   90.00000000
_cell_angle_gamma   90.00000000
_symmetry_Int_Tables_number   1
_chemical_formula_structural   Pt143Au106
_chemical_formula_sum   'Pt143 Au106'
_cell_volume   27000.00000000
_cell_formula_units_Z   1
loop_
 _symmetry_equiv_pos_site_id
 _symmetry_equiv_pos_as_xyz
  1  'x, y, z'
loop_
 _atom_site_type_symbol
 _atom_site_label
 _atom_site_symmetry_multiplicity
 _atom_site_fract_x
 _atom_site_fract_y
 _atom_site_fract_z
 _atom_site_occupancy
  Pt  Pt0  1  0.50000000  0.49999746  0.49990097  1
  Pt  Pt1  1  0.56555971  0.50013983  0.43508664  1
  Pt  Pt2  1  0.43444029  0.50013983  0.43508664  1
  Pt  Pt3  1  0.50000000  0.56563747  0.43507757  1
  Pt  Pt4  1  0.50000000  0.43455430  0.43504501  1
  Pt  Pt5  1  0.56546100  0.49960679  0.56491294  1
  Pt  Pt6  1  0.43453900  0.49960679  0.56491294  1
  Pt  Pt7  1  0.50000000  0.56558276  0.56502649  1
  Pt  Pt8  1  0.50000000  0.43413388  0.56474474  1
  Pt  Pt9  1  0.56547376  0.56546234  0.49990244  1
  Pt  Pt10  1  0.43452624  0.56546234  0.49990244  1
  Pt  Pt11  1  0.56548598  0.43437668  0.49982054  1
  Pt  Pt12  1  0.43451402  0.43437668  0.49982054  1
  Pt  Pt13  1  0.50000000  0.49900135  0.63033650  1
  Pt  Pt14  1  0.50000000  0.50017444  0.36908766  1
  Pt  Pt15  1  0.36826593  0.49985592  0.50019731  1
  Pt  Pt16  1  0.63173407  0.49985592  0.50019731  1
  Pt  Pt17  1  0.50000000  0.36813992  0.50003655  1
  Pt  Pt18  1  0.50000000  0.63195677  0.49993772  1
  Pt  Pt19  1  0.56524719  0.56563083  0.63019730  1
  Pt  Pt20  1  0.43475281  0.56563083  0.63019730  1
  Pt  Pt21  1  0.56568135  0.43409836  0.63092460  1
  Pt  Pt22  1  0.43431865  0.43409836  0.63092460  1
  Pt  Pt23  1  0.56560002  0.56576318  0.36978095  1
  Pt  Pt24  1  0.43439998  0.56576318  0.36978095  1
  Pt  Pt25  1  0.56565821  0.43449192  0.36987885  1
  Pt  Pt26  1  0.43434179  0.43449192  0.36987885  1
  Pt  Pt27  1  0.63107196  0.56584592  0.43484193  1
  Pt  Pt28  1  0.63098428  0.43422835  0.43479237  1
  Pt  Pt29  1  0.36892804  0.56584592  0.43484193  1
  Pt  Pt30  1  0.36901572  0.43422835  0.43479237  1
  Pt  Pt31  1  0.56571881  0.36881991  0.43474829  1
  Pt  Pt32  1  0.43428119  0.36881991  0.43474829  1
  Pt  Pt33  1  0.56580128  0.63123894  0.43481229  1
  Pt  Pt34  1  0.43419872  0.63123894  0.43481229  1
  Pt  Pt35  1  0.36946019  0.56577708  0.56564849  1
  Pt  Pt36  1  0.36899821  0.43397402  0.56547216  1
  Pt  Pt37  1  0.63053981  0.56577708  0.56564849  1
  Pt  Pt38  1  0.63100179  0.43397402  0.56547216  1
  Pt  Pt39  1  0.56562246  0.36889216  0.56571554  1
  Pt  Pt40  1  0.43437754  0.36889216  0.56571554  1
  Pt  Pt41  1  0.56589785  0.63118282  0.56501445  1
  Pt  Pt42  1  0.43410215  0.63118282  0.56501445  1
  Pt  Pt43  1  0.36793690  0.49940733  0.63144380  1
  Pt  Pt44  1  0.63206310  0.49940733  0.63144380  1
  Pt  Pt45  1  0.50000000  0.36793278  0.63193318  1
  Pt  Pt46  1  0.50000000  0.63343665  0.63040500  1
  Pt  Pt47  1  0.63182684  0.50009709  0.36866481  1
  Pt  Pt48  1  0.36817316  0.50009709  0.36866481  1
  Pt  Pt49  1  0.50000000  0.36814423  0.36879476  1
  Pt  Pt50  1  0.50000000  0.63194148  0.36876531  1
  Pt  Pt51  1  0.36791462  0.36782295  0.50015741  1
  Pt  Pt52  1  0.36790050  0.63240566  0.50012973  1
  Pt  Pt53  1  0.63208538  0.36782295  0.50015741  1
  Pt  Pt54  1  0.63209950  0.63240566  0.50012973  1
  Pt  Pt55  1  0.56608983  0.49856719  0.69558746  1
  Pt  Pt56  1  0.43391017  0.49856719  0.69558746  1
  Pt  Pt57  1  0.50000000  0.56665840  0.69323507  1
  Pt  Pt58  1  0.50000000  0.43306190  0.69720795  1
  Pt  Pt59  1  0.50000000  0.56623029  0.30391985  1
  Pt  Pt60  1  0.50000000  0.43387677  0.30410732  1
  Pt  Pt61  1  0.56622140  0.49999789  0.30396419  1
  Pt  Pt62  1  0.43377860  0.49999789  0.30396419  1
  Pt  Pt63  1  0.69663364  0.50013078  0.43427770  1
  Pt  Pt64  1  0.30336636  0.50013078  0.43427770  1
  Pt  Pt65  1  0.69647096  0.49988468  0.56606830  1
  Pt  Pt66  1  0.30352904  0.49988468  0.56606830  1
  Pt  Pt67  1  0.69680082  0.56660698  0.50039468  1
  Pt  Pt68  1  0.69696048  0.43352607  0.50005838  1
  Pt  Pt69  1  0.30319918  0.56660698  0.50039468  1
  Pt  Pt70  1  0.30303952  0.43352607  0.50005838  1
  Pt  Pt71  1  0.50000000  0.69713810  0.43422913  1
  Pt  Pt72  1  0.50000000  0.30308928  0.43421379  1
  Pt  Pt73  1  0.50000000  0.69709002  0.56566317  1
  Pt  Pt74  1  0.50000000  0.30310113  0.56600096  1
  Pt  Pt75  1  0.56655548  0.69734513  0.49999875  1
  Pt  Pt76  1  0.43344452  0.69734513  0.49999875  1
  Pt  Pt77  1  0.56631417  0.30286224  0.50021442  1
  Pt  Pt78  1  0.43368583  0.30286224  0.50021442  1
  Pt  Pt79  1  0.36866302  0.36852828  0.63116425  1
  Pt  Pt80  1  0.36854634  0.63210379  0.63091190  1
  Pt  Pt81  1  0.63133698  0.36852828  0.63116425  1
  Pt  Pt82  1  0.63145366  0.63210379  0.63091190  1
  Pt  Pt83  1  0.63129417  0.36838178  0.36924385  1
  Pt  Pt84  1  0.36870583  0.36838178  0.36924385  1
  Pt  Pt85  1  0.63144716  0.63160026  0.36926761  1
  Pt  Pt86  1  0.36855284  0.63160026  0.36926761  1
  Pt  Pt87  1  0.63272971  0.56543378  0.69641223  1
  Pt  Pt88  1  0.63326582  0.43478533  0.69794582  1
  Pt  Pt89  1  0.36727029  0.56543378  0.69641223  1
  Pt  Pt90  1  0.36673418  0.43478533  0.69794582  1
  Pt  Pt91  1  0.56508010  0.36685964  0.69742537  1
  Pt  Pt92  1  0.43491990  0.36685964  0.69742537  1
  Pt  Pt93  1  0.56516560  0.63400940  0.69703732  1
  Pt  Pt94  1  0.43483440  0.63400940  0.69703732  1
  Pt  Pt95  1  0.63239799  0.56530975  0.30296083  1
  Pt  Pt96  1  0.63239835  0.43474490  0.30298545  1
  Pt  Pt97  1  0.36760201  0.56530975  0.30296083  1
  Pt  Pt98  1  0.36760165  0.43474490  0.30298545  1
  Pt  Pt99  1  0.69703252  0.56553762  0.63230792  1
  Pt  Pt100  1  0.69836527  0.43438755  0.63242902  1
  Pt  Pt101  1  0.30296748  0.56553762  0.63230792  1
  Pt  Pt102  1  0.30163473  0.43438755  0.63242902  1
  Pt  Pt103  1  0.69759141  0.56532423  0.36791481  1
  Pt  Pt104  1  0.69759659  0.43479180  0.36813896  1
  Pt  Pt105  1  0.30240859  0.56532423  0.36791481  1
  Pt  Pt106  1  0.30240341  0.43479180  0.36813896  1
  Pt  Pt107  1  0.56513290  0.36766717  0.30304151  1
  Pt  Pt108  1  0.43486710  0.36766717  0.30304151  1
  Pt  Pt109  1  0.56513011  0.63250069  0.30298728  1
  Pt  Pt110  1  0.43486989  0.63250069  0.30298728  1
  Pt  Pt111  1  0.56557309  0.69810237  0.63225565  1
  Pt  Pt112  1  0.43442691  0.69810237  0.63225565  1
  Pt  Pt113  1  0.56522210  0.30160494  0.63217328  1
  Pt  Pt114  1  0.43477790  0.30160494  0.63217328  1
  Pt  Pt115  1  0.69776804  0.36708828  0.43520594  1
  Pt  Pt116  1  0.69789619  0.63293209  0.43530616  1
  Pt  Pt117  1  0.30223196  0.36708828  0.43520594  1
  Pt  Pt118  1  0.30210381  0.63293209  0.43530616  1
  Pt  Pt119  1  0.56500564  0.69785782  0.36808993  1
  Pt  Pt120  1  0.43499436  0.69785782  0.36808993  1
  Pt  Pt121  1  0.56513701  0.30201938  0.36799147  1
  Pt  Pt122  1  0.43486299  0.30201938  0.36799147  1
  Pt  Pt123  1  0.69784303  0.36724879  0.56508704  1
  Pt  Pt124  1  0.69795424  0.63286681  0.56508061  1
  Pt  Pt125  1  0.30215697  0.36724879  0.56508704  1
  Pt  Pt126  1  0.30204576  0.63286681  0.56508061  1
  Pt  Pt127  1  0.63280507  0.69817810  0.43515827  1
  Pt  Pt128  1  0.36719493  0.69817810  0.43515827  1
  Pt  Pt129  1  0.63266909  0.30188454  0.43528564  1
  Pt  Pt130  1  0.36733091  0.30188454  0.43528564  1
  Pt  Pt131  1  0.36733590  0.69844109  0.56500945  1
  Pt  Pt132  1  0.36752739  0.30196770  0.56503688  1
  Pt  Pt133  1  0.63266410  0.69844109  0.56500945  1
  Pt  Pt134  1  0.63247261  0.30196770  0.56503688  1
  Pt  Pt135  1  0.50000000  0.50122328  0.75950537  1
  Pt  Pt136  1  0.23976473  0.50007271  0.50018103  1
  Pt  Pt137  1  0.76023527  0.50007271  0.50018103  1
  Pt  Pt138  1  0.50000000  0.50000288  0.24072526  1
  Pt  Pt139  1  0.50000000  0.23893717  0.49977968  1
  Pt  Pt140  1  0.50000000  0.76067222  0.50040328  1
  Pt  Pt141  1  0.56338916  0.56480289  0.75809910  1
  Pt  Pt142  1  0.43661084  0.56480289  0.75809910  1
  Au  Au143  1  0.56515080  0.43472237  0.76809417  1
  Au  Au144  1  0.43484920  0.43472237  0.76809417  1
  Au  Au145  1  0.70079781  0.49997301  0.70063153  1
  Au  Au146  1  0.29920219  0.49997301  0.70063153  1
  Au  Au147  1  0.56521274  0.56520571  0.23202072  1
  Au  Au148  1  0.43478726  0.56520571  0.23202072  1
  Au  Au149  1  0.56523105  0.43477943  0.23206130  1
  Au  Au150  1  0.43476895  0.43477943  0.23206130  1
  Au  Au151  1  0.50000000  0.70136372  0.70087467  1
  Au  Au152  1  0.50000000  0.29833225  0.70038541  1
  Au  Au153  1  0.70074397  0.49997458  0.29974906  1
  Au  Au154  1  0.29925603  0.49997458  0.29974906  1
  Au  Au155  1  0.50000000  0.70098320  0.29969190  1
  Au  Au156  1  0.50000000  0.29924958  0.29977093  1
  Au  Au157  1  0.76825566  0.56551465  0.43507639  1
  Au  Au158  1  0.76844167  0.43457743  0.43515962  1
  Au  Au159  1  0.23174434  0.56551465  0.43507639  1
  Au  Au160  1  0.23155833  0.43457743  0.43515962  1
  Au  Au161  1  0.23158972  0.56560254  0.56529760  1
  Au  Au162  1  0.23149165  0.43464017  0.56526258  1
  Au  Au163  1  0.76841028  0.56560254  0.56529760  1
  Au  Au164  1  0.76850835  0.43464017  0.56526258  1
  Au  Au165  1  0.56536897  0.23133596  0.43504700  1
  Au  Au166  1  0.43463103  0.23133596  0.43504700  1
  Au  Au167  1  0.56530782  0.76871983  0.43497235  1
  Au  Au168  1  0.43469218  0.76871983  0.43497235  1
  Au  Au169  1  0.70123326  0.70134118  0.50024032  1
  Au  Au170  1  0.29876674  0.70134118  0.50024032  1
  Au  Au171  1  0.70112810  0.29874494  0.50028829  1
  Au  Au172  1  0.29887190  0.29874494  0.50028829  1
  Au  Au173  1  0.56533010  0.23089991  0.56470725  1
  Au  Au174  1  0.43466990  0.23089991  0.56470725  1
  Au  Au175  1  0.56567710  0.76954077  0.56509861  1
  Au  Au176  1  0.43432290  0.76954077  0.56509861  1
  Au  Au177  1  0.63135150  0.50111658  0.76368783  1
  Au  Au178  1  0.36864850  0.50111658  0.76368783  1
  Au  Au179  1  0.23618295  0.50043656  0.63213793  1
  Au  Au180  1  0.76381705  0.50043656  0.63213793  1
  Au  Au181  1  0.50000000  0.36669290  0.76403278  1
  Au  Au182  1  0.50000000  0.63134212  0.76397414  1
  Au  Au183  1  0.50000000  0.23512286  0.63171751  1
  Au  Au184  1  0.50000000  0.76393184  0.63187189  1
  Au  Au185  1  0.76380655  0.50004914  0.36816128  1
  Au  Au186  1  0.23619345  0.50004914  0.36816128  1
  Au  Au187  1  0.50000000  0.23559104  0.36794717  1
  Au  Au188  1  0.50000000  0.76461620  0.36778141  1
  Au  Au189  1  0.23539009  0.36712728  0.50019042  1
  Au  Au190  1  0.23529953  0.63304279  0.50010094  1
  Au  Au191  1  0.76460991  0.36712728  0.50019042  1
  Au  Au192  1  0.76470047  0.63304279  0.50010094  1
  Au  Au193  1  0.36761206  0.50000360  0.23656295  1
  Au  Au194  1  0.63238794  0.50000360  0.23656295  1
  Au  Au195  1  0.50000000  0.36763901  0.23655075  1
  Au  Au196  1  0.50000000  0.63238218  0.23654394  1
  Au  Au197  1  0.36705077  0.23517320  0.50011652  1
  Au  Au198  1  0.36690731  0.76499782  0.50000852  1
  Au  Au199  1  0.63294923  0.23517320  0.50011652  1
  Au  Au200  1  0.63309269  0.76499782  0.50000852  1
  Au  Au201  1  0.69971876  0.36810204  0.69865890  1
  Au  Au202  1  0.69906402  0.63277792  0.69958570  1
  Au  Au203  1  0.30028124  0.36810204  0.69865890  1
  Au  Au204  1  0.30093598  0.63277792  0.69958570  1
  Au  Au205  1  0.63194426  0.69993159  0.70001879  1
  Au  Au206  1  0.36805574  0.69993159  0.70001879  1
  Au  Au207  1  0.63133565  0.29991337  0.69882823  1
  Au  Au208  1  0.36866435  0.29991337  0.69882823  1
  Au  Au209  1  0.69928325  0.36843721  0.30143184  1
  Au  Au210  1  0.69929817  0.63184403  0.30130554  1
  Au  Au211  1  0.30071675  0.36843721  0.30143184  1
  Au  Au212  1  0.30070183  0.63184403  0.30130554  1
  Au  Au213  1  0.63091076  0.69970184  0.30088858  1
  Au  Au214  1  0.36908924  0.69970184  0.30088858  1
  Au  Au215  1  0.63102250  0.30037738  0.30101438  1
  Au  Au216  1  0.36897750  0.30037738  0.30101438  1
  Au  Au217  1  0.69988160  0.70024229  0.63097366  1
  Au  Au218  1  0.30011840  0.70024229  0.63097366  1
  Au  Au219  1  0.69962672  0.29982966  0.63087356  1
  Au  Au220  1  0.30037328  0.29982966  0.63087356  1
  Au  Au221  1  0.69950313  0.69998399  0.36906476  1
  Au  Au222  1  0.30049687  0.69998399  0.36906476  1
  Au  Au223  1  0.69952901  0.29999657  0.36912297  1
  Au  Au224  1  0.30047099  0.29999657  0.36912297  1
  Au  Au225  1  0.63057592  0.36890654  0.76146332  1
  Au  Au226  1  0.36942408  0.36890654  0.76146332  1
  Au  Au227  1  0.62958678  0.62946051  0.76221076  1
  Au  Au228  1  0.37041322  0.62946051  0.76221076  1
  Au  Au229  1  0.23739482  0.36822840  0.62983595  1
  Au  Au230  1  0.23823212  0.63075845  0.63104462  1
  Au  Au231  1  0.76260518  0.36822840  0.62983595  1
  Au  Au232  1  0.76176788  0.63075845  0.63104462  1
  Au  Au233  1  0.36896087  0.23722262  0.62989592  1
  Au  Au234  1  0.36913572  0.76234451  0.63099734  1
  Au  Au235  1  0.63103913  0.23722262  0.62989592  1
  Au  Au236  1  0.63086428  0.76234451  0.63099734  1
  Au  Au237  1  0.76196238  0.36905483  0.36975401  1
  Au  Au238  1  0.76200566  0.63093366  0.36963423  1
  Au  Au239  1  0.23803762  0.36905483  0.36975401  1
  Au  Au240  1  0.23799434  0.63093366  0.36963423  1
  Au  Au241  1  0.63069594  0.23759864  0.36960358  1
  Au  Au242  1  0.36930406  0.23759864  0.36960358  1
  Au  Au243  1  0.63063229  0.76235157  0.36957398  1
  Au  Au244  1  0.36936771  0.76235157  0.36957398  1
  Au  Au245  1  0.36923187  0.36918700  0.23858538  1
  Au  Au246  1  0.36927137  0.63074253  0.23855715  1
  Au  Au247  1  0.63076813  0.36918700  0.23858538  1
  Au  Au248  1  0.63072863  0.63074253  0.23855715  1
