# generated using pymatgen
data_Co91Pt32
_symmetry_space_group_name_H-M   'P 1'
_cell_length_a   30.00000000
_cell_length_b   30.00000000
_cell_length_c   30.00000000
_cell_angle_alpha   90.00000000
_cell_angle_beta   90.00000000
_cell_angle_gamma   90.00000000
_symmetry_Int_Tables_number   1
_chemical_formula_structural   Co91Pt32
_chemical_formula_sum   'Co273 Pt96'
_cell_volume   27000.00000000
_cell_formula_units_Z   3
loop_
 _symmetry_equiv_pos_site_id
 _symmetry_equiv_pos_as_xyz
  1  'x, y, z'
loop_
 _atom_site_type_symbol
 _atom_site_label
 _atom_site_symmetry_multiplicity
 _atom_site_fract_x
 _atom_site_fract_y
 _atom_site_fract_z
 _atom_site_occupancy
  Co  Co0  1  0.50000000  0.50000000  0.50000000  1
  Co  Co1  1  0.44214796  0.50000000  0.44214796  1
  Co  Co2  1  0.44214796  0.55785204  0.50000000  1
  Co  Co3  1  0.50000000  0.55785204  0.44214796  1
  Co  Co4  1  0.44214796  0.44214796  0.50000000  1
  Co  Co5  1  0.44214796  0.50000000  0.55785204  1
  Co  Co6  1  0.50000000  0.44214796  0.44214796  1
  Co  Co7  1  0.50000000  0.44214796  0.55785204  1
  Co  Co8  1  0.55785204  0.50000000  0.44214796  1
  Co  Co9  1  0.55785204  0.55785204  0.50000000  1
  Co  Co10  1  0.55785204  0.44214796  0.50000000  1
  Co  Co11  1  0.50000000  0.55785204  0.55785204  1
  Co  Co12  1  0.55785204  0.50000000  0.55785204  1
  Co  Co13  1  0.50000000  0.61456846  0.50000000  1
  Co  Co14  1  0.50000000  0.50000000  0.38543154  1
  Co  Co15  1  0.38543154  0.50000000  0.50000000  1
  Co  Co16  1  0.50000000  0.38543154  0.50000000  1
  Co  Co17  1  0.50000000  0.50000000  0.61456846  1
  Co  Co18  1  0.61456846  0.50000000  0.50000000  1
  Co  Co19  1  0.44211778  0.61584753  0.44211778  1
  Co  Co20  1  0.38415247  0.55788222  0.44211778  1
  Co  Co21  1  0.44211778  0.55788222  0.38415247  1
  Co  Co22  1  0.38415247  0.55788222  0.55788222  1
  Co  Co23  1  0.44211778  0.44211778  0.38415247  1
  Co  Co24  1  0.38415247  0.44211778  0.44211778  1
  Co  Co25  1  0.38415247  0.44211778  0.55788222  1
  Co  Co26  1  0.44211778  0.38415247  0.44211778  1
  Co  Co27  1  0.44211778  0.44211778  0.61584753  1
  Co  Co28  1  0.44211778  0.61584753  0.55788222  1
  Co  Co29  1  0.44211778  0.38415247  0.55788222  1
  Co  Co30  1  0.55788222  0.61584753  0.44211778  1
  Co  Co31  1  0.55788222  0.55788222  0.38415247  1
  Co  Co32  1  0.55788222  0.44211778  0.38415247  1
  Co  Co33  1  0.44211778  0.55788222  0.61584753  1
  Co  Co34  1  0.55788222  0.38415247  0.44211778  1
  Co  Co35  1  0.61584753  0.44211778  0.44211778  1
  Co  Co36  1  0.61584753  0.55788222  0.44211778  1
  Co  Co37  1  0.55788222  0.61584753  0.55788222  1
  Co  Co38  1  0.55788222  0.38415247  0.55788222  1
  Co  Co39  1  0.55788222  0.44211778  0.61584753  1
  Co  Co40  1  0.55788222  0.55788222  0.61584753  1
  Co  Co41  1  0.61584753  0.44211778  0.55788222  1
  Co  Co42  1  0.61584753  0.55788222  0.55788222  1
  Co  Co43  1  0.38485366  0.61514634  0.50000000  1
  Co  Co44  1  0.38485366  0.50000000  0.61514634  1
  Co  Co45  1  0.50000000  0.61514634  0.38485366  1
  Co  Co46  1  0.38485366  0.50000000  0.38485366  1
  Co  Co47  1  0.50000000  0.38485366  0.38485366  1
  Co  Co48  1  0.50000000  0.38485366  0.61514634  1
  Co  Co49  1  0.38485366  0.38485366  0.50000000  1
  Co  Co50  1  0.50000000  0.61514634  0.61514634  1
  Co  Co51  1  0.61514634  0.50000000  0.38485366  1
  Co  Co52  1  0.61514634  0.61514634  0.50000000  1
  Co  Co53  1  0.61514634  0.38485366  0.50000000  1
  Co  Co54  1  0.61514634  0.50000000  0.61514634  1
  Co  Co55  1  0.32741435  0.55778347  0.50000000  1
  Co  Co56  1  0.32741435  0.50000000  0.44221653  1
  Co  Co57  1  0.44221653  0.50000000  0.32741435  1
  Co  Co58  1  0.32741435  0.50000000  0.55778347  1
  Co  Co59  1  0.50000000  0.55778347  0.32741435  1
  Co  Co60  1  0.50000000  0.44221653  0.32741435  1
  Co  Co61  1  0.32741435  0.44221653  0.50000000  1
  Co  Co62  1  0.44221653  0.67258565  0.50000000  1
  Co  Co63  1  0.55778347  0.32741435  0.50000000  1
  Co  Co64  1  0.50000000  0.32741435  0.55778347  1
  Co  Co65  1  0.50000000  0.32741435  0.44221653  1
  Co  Co66  1  0.55778347  0.50000000  0.32741435  1
  Co  Co67  1  0.50000000  0.67258565  0.44221653  1
  Co  Co68  1  0.50000000  0.44221653  0.67258565  1
  Co  Co69  1  0.44221653  0.32741435  0.50000000  1
  Co  Co70  1  0.44221653  0.50000000  0.67258565  1
  Co  Co71  1  0.50000000  0.67258565  0.55778347  1
  Co  Co72  1  0.55778347  0.67258565  0.50000000  1
  Co  Co73  1  0.67258565  0.44221653  0.50000000  1
  Co  Co74  1  0.50000000  0.55778347  0.67258565  1
  Co  Co75  1  0.67258565  0.50000000  0.44221653  1
  Co  Co76  1  0.67258565  0.55778347  0.50000000  1
  Co  Co77  1  0.67258565  0.50000000  0.55778347  1
  Co  Co78  1  0.55778347  0.50000000  0.67258565  1
  Co  Co79  1  0.38485268  0.61514732  0.38485268  1
  Co  Co80  1  0.38485268  0.61514732  0.61514732  1
  Co  Co81  1  0.38485268  0.38485268  0.61514732  1
  Co  Co82  1  0.38485268  0.38485268  0.38485268  1
  Co  Co83  1  0.61514732  0.61514732  0.38485268  1
  Co  Co84  1  0.61514732  0.38485268  0.38485268  1
  Co  Co85  1  0.61514732  0.61514732  0.61514732  1
  Co  Co86  1  0.61514732  0.38485268  0.61514732  1
  Co  Co87  1  0.32741701  0.61485555  0.44276113  1
  Co  Co88  1  0.44276113  0.61485555  0.32741701  1
  Co  Co89  1  0.32741701  0.55723887  0.61485555  1
  Co  Co90  1  0.32741701  0.61485555  0.55723887  1
  Co  Co91  1  0.38514445  0.55723887  0.32741701  1
  Co  Co92  1  0.32741701  0.55723887  0.38514445  1
  Co  Co93  1  0.32741701  0.44276113  0.61485555  1
  Co  Co94  1  0.32741701  0.44276113  0.38514445  1
  Co  Co95  1  0.38514445  0.44276113  0.32741701  1
  Co  Co96  1  0.44276113  0.38514445  0.32741701  1
  Co  Co97  1  0.38514445  0.67258299  0.44276113  1
  Co  Co98  1  0.32741701  0.38514445  0.44276113  1
  Co  Co99  1  0.38514445  0.55723887  0.67258299  1
  Co  Co100  1  0.44276113  0.67258299  0.38514445  1
  Co  Co101  1  0.32741701  0.38514445  0.55723887  1
  Co  Co102  1  0.55723887  0.38514445  0.32741701  1
  Co  Co103  1  0.61485555  0.32741701  0.44276113  1
  Co  Co104  1  0.55723887  0.61485555  0.32741701  1
  Co  Co105  1  0.38514445  0.44276113  0.67258299  1
  Co  Co106  1  0.61485555  0.55723887  0.32741701  1
  Co  Co107  1  0.38514445  0.67258299  0.55723887  1
  Co  Co108  1  0.44276113  0.32741701  0.38514445  1
  Co  Co109  1  0.44276113  0.32741701  0.61485555  1
  Co  Co110  1  0.61485555  0.32741701  0.55723887  1
  Co  Co111  1  0.61485555  0.44276113  0.32741701  1
  Co  Co112  1  0.38514445  0.32741701  0.55723887  1
  Co  Co113  1  0.55723887  0.32741701  0.61485555  1
  Co  Co114  1  0.55723887  0.32741701  0.38514445  1
  Co  Co115  1  0.38514445  0.32741701  0.44276113  1
  Co  Co116  1  0.61485555  0.67258299  0.44276113  1
  Co  Co117  1  0.44276113  0.38514445  0.67258299  1
  Co  Co118  1  0.44276113  0.67258299  0.61485555  1
  Co  Co119  1  0.55723887  0.67258299  0.38514445  1
  Co  Co120  1  0.44276113  0.61485555  0.67258299  1
  Co  Co121  1  0.67258299  0.61485555  0.44276113  1
  Co  Co122  1  0.55723887  0.38514445  0.67258299  1
  Co  Co123  1  0.61485555  0.67258299  0.55723887  1
  Co  Co124  1  0.55723887  0.67258299  0.61485555  1
  Co  Co125  1  0.67258299  0.55723887  0.38514445  1
  Co  Co126  1  0.67258299  0.44276113  0.38514445  1
  Co  Co127  1  0.55723887  0.61485555  0.67258299  1
  Co  Co128  1  0.67258299  0.61485555  0.55723887  1
  Co  Co129  1  0.67258299  0.38514445  0.44276113  1
  Co  Co130  1  0.61485555  0.55723887  0.67258299  1
  Co  Co131  1  0.61485555  0.44276113  0.67258299  1
  Co  Co132  1  0.67258299  0.44276113  0.61485555  1
  Co  Co133  1  0.67258299  0.38514445  0.55723887  1
  Co  Co134  1  0.67258299  0.55723887  0.61485555  1
  Co  Co135  1  0.27236533  0.50000000  0.50000000  1
  Co  Co136  1  0.50000000  0.72763467  0.50000000  1
  Co  Co137  1  0.50000000  0.50000000  0.27236533  1
  Co  Co138  1  0.50000000  0.27236533  0.50000000  1
  Co  Co139  1  0.50000000  0.50000000  0.72763467  1
  Co  Co140  1  0.72763467  0.50000000  0.50000000  1
  Co  Co141  1  0.44255500  0.55744500  0.27047571  1
  Co  Co142  1  0.44255500  0.72952429  0.44255500  1
  Co  Co143  1  0.27047571  0.55744500  0.55744500  1
  Co  Co144  1  0.27047571  0.55744500  0.44255500  1
  Co  Co145  1  0.32764636  0.50000000  0.32764636  1
  Co  Co146  1  0.32764636  0.67235364  0.50000000  1
  Co  Co147  1  0.44255500  0.44255500  0.27047571  1
  Co  Co148  1  0.44255500  0.44255500  0.72952429  1
  Co  Co149  1  0.27047571  0.44255500  0.44255500  1
  Co  Co150  1  0.50000000  0.67235364  0.32764636  1
  Co  Co151  1  0.50000000  0.32764636  0.32764636  1
  Co  Co152  1  0.27047571  0.44255500  0.55744500  1
  Co  Co153  1  0.32764636  0.50000000  0.67235364  1
  Co  Co154  1  0.44255500  0.72952429  0.55744500  1
  Co  Co155  1  0.55744500  0.72952429  0.44255500  1
  Co  Co156  1  0.32764636  0.32764636  0.50000000  1
  Co  Co157  1  0.44255500  0.27047571  0.44255500  1
  Co  Co158  1  0.44255500  0.27047571  0.55744500  1
  Co  Co159  1  0.55744500  0.27047571  0.44255500  1
  Co  Co160  1  0.55744500  0.55744500  0.27047571  1
  Co  Co161  1  0.55744500  0.44255500  0.27047571  1
  Co  Co162  1  0.67235364  0.32764636  0.50000000  1
  Co  Co163  1  0.55744500  0.27047571  0.55744500  1
  Co  Co164  1  0.50000000  0.32764636  0.67235364  1
  Co  Co165  1  0.55744500  0.72952429  0.55744500  1
  Co  Co166  1  0.44255500  0.55744500  0.72952429  1
  Co  Co167  1  0.72952429  0.44255500  0.44255500  1
  Co  Co168  1  0.67235364  0.50000000  0.32764636  1
  Co  Co169  1  0.72952429  0.55744500  0.44255500  1
  Co  Co170  1  0.55744500  0.55744500  0.72952429  1
  Co  Co171  1  0.72952429  0.44255500  0.55744500  1
  Co  Co172  1  0.72952429  0.55744500  0.55744500  1
  Co  Co173  1  0.55744500  0.44255500  0.72952429  1
  Co  Co174  1  0.50000000  0.67235364  0.67235364  1
  Co  Co175  1  0.67235364  0.67235364  0.50000000  1
  Co  Co176  1  0.67235364  0.50000000  0.67235364  1
  Co  Co177  1  0.27034020  0.50000000  0.61401194  1
  Co  Co178  1  0.38598806  0.72965980  0.50000000  1
  Co  Co179  1  0.27034020  0.50000000  0.38598806  1
  Co  Co180  1  0.27034020  0.61401194  0.50000000  1
  Co  Co181  1  0.27034020  0.38598806  0.50000000  1
  Co  Co182  1  0.50000000  0.38598806  0.27034020  1
  Co  Co183  1  0.50000000  0.72965980  0.38598806  1
  Co  Co184  1  0.38598806  0.50000000  0.72965980  1
  Co  Co185  1  0.38598806  0.50000000  0.27034020  1
  Co  Co186  1  0.50000000  0.38598806  0.72965980  1
  Co  Co187  1  0.50000000  0.61401194  0.27034020  1
  Co  Co188  1  0.50000000  0.27034020  0.38598806  1
  Co  Co189  1  0.50000000  0.61401194  0.72965980  1
  Co  Co190  1  0.61401194  0.72965980  0.50000000  1
  Co  Co191  1  0.61401194  0.27034020  0.50000000  1
  Co  Co192  1  0.50000000  0.27034020  0.61401194  1
  Co  Co193  1  0.38598806  0.27034020  0.50000000  1
  Co  Co194  1  0.72965980  0.61401194  0.50000000  1
  Co  Co195  1  0.61401194  0.50000000  0.27034020  1
  Co  Co196  1  0.72965980  0.50000000  0.38598806  1
  Co  Co197  1  0.50000000  0.72965980  0.61401194  1
  Co  Co198  1  0.72965980  0.38598806  0.50000000  1
  Co  Co199  1  0.72965980  0.50000000  0.61401194  1
  Co  Co200  1  0.61401194  0.50000000  0.72965980  1
  Co  Co201  1  0.32834125  0.61625713  0.32834125  1
  Co  Co202  1  0.38374287  0.67165875  0.32834125  1
  Co  Co203  1  0.38374287  0.32834125  0.32834125  1
  Co  Co204  1  0.32834125  0.38374287  0.32834125  1
  Co  Co205  1  0.61625713  0.32834125  0.32834125  1
  Co  Co206  1  0.32834125  0.67165875  0.38374287  1
  Co  Co207  1  0.32834125  0.32834125  0.61625713  1
  Co  Co208  1  0.32834125  0.61625713  0.67165875  1
  Co  Co209  1  0.32834125  0.32834125  0.38374287  1
  Co  Co210  1  0.32834125  0.38374287  0.67165875  1
  Co  Co211  1  0.67165875  0.32834125  0.38374287  1
  Co  Co212  1  0.32834125  0.67165875  0.61625713  1
  Co  Co213  1  0.61625713  0.32834125  0.67165875  1
  Co  Co214  1  0.61625713  0.67165875  0.32834125  1
  Co  Co215  1  0.38374287  0.32834125  0.67165875  1
  Co  Co216  1  0.67165875  0.32834125  0.61625713  1
  Co  Co217  1  0.67165875  0.38374287  0.32834125  1
  Co  Co218  1  0.38374287  0.67165875  0.67165875  1
  Co  Co219  1  0.67165875  0.61625713  0.32834125  1
  Co  Co220  1  0.67165875  0.67165875  0.38374287  1
  Co  Co221  1  0.61625713  0.67165875  0.67165875  1
  Co  Co222  1  0.67165875  0.38374287  0.67165875  1
  Co  Co223  1  0.67165875  0.61625713  0.67165875  1
  Co  Co224  1  0.67165875  0.67165875  0.61625713  1
  Co  Co225  1  0.38489550  0.73133909  0.38489550  1
  Co  Co226  1  0.26866091  0.61510450  0.38489550  1
  Co  Co227  1  0.38489550  0.61510450  0.26866091  1
  Co  Co228  1  0.26866091  0.61510450  0.61510450  1
  Co  Co229  1  0.61510450  0.73133909  0.38489550  1
  Co  Co230  1  0.38489550  0.73133909  0.61510450  1
  Co  Co231  1  0.38489550  0.38489550  0.73133909  1
  Co  Co232  1  0.26866091  0.38489550  0.38489550  1
  Co  Co233  1  0.61510450  0.26866091  0.38489550  1
  Co  Co234  1  0.61510450  0.26866091  0.61510450  1
  Co  Co235  1  0.26866091  0.38489550  0.61510450  1
  Co  Co236  1  0.38489550  0.38489550  0.26866091  1
  Co  Co237  1  0.38489550  0.26866091  0.38489550  1
  Co  Co238  1  0.38489550  0.26866091  0.61510450  1
  Co  Co239  1  0.61510450  0.61510450  0.26866091  1
  Co  Co240  1  0.61510450  0.73133909  0.61510450  1
  Co  Co241  1  0.38489550  0.61510450  0.73133909  1
  Co  Co242  1  0.61510450  0.38489550  0.26866091  1
  Co  Co243  1  0.73133909  0.61510450  0.38489550  1
  Co  Co244  1  0.73133909  0.38489550  0.38489550  1
  Co  Co245  1  0.73133909  0.38489550  0.61510450  1
  Co  Co246  1  0.61510450  0.38489550  0.73133909  1
  Co  Co247  1  0.73133909  0.61510450  0.61510450  1
  Co  Co248  1  0.61510450  0.61510450  0.73133909  1
  Co  Co249  1  0.50000000  0.44660711  0.78531278  1
  Co  Co250  1  0.50000000  0.55339289  0.21468722  1
  Co  Co251  1  0.21468722  0.50000000  0.44660711  1
  Co  Co252  1  0.21468722  0.50000000  0.55339289  1
  Co  Co253  1  0.50000000  0.44660711  0.21468722  1
  Co  Co254  1  0.50000000  0.78531278  0.44660711  1
  Co  Co255  1  0.44660711  0.50000000  0.21468722  1
  Co  Co256  1  0.44660711  0.50000000  0.78531278  1
  Co  Co257  1  0.21468722  0.55339289  0.50000000  1
  Co  Co258  1  0.21468722  0.44660711  0.50000000  1
  Co  Co259  1  0.44660711  0.78531278  0.50000000  1
  Co  Co260  1  0.50000000  0.21468722  0.55339289  1
  Co  Co261  1  0.55339289  0.78531278  0.50000000  1
  Co  Co262  1  0.50000000  0.21468722  0.44660711  1
  Co  Co263  1  0.55339289  0.21468722  0.50000000  1
  Co  Co264  1  0.55339289  0.50000000  0.21468722  1
  Co  Co265  1  0.44660711  0.21468722  0.50000000  1
  Co  Co266  1  0.50000000  0.78531278  0.55339289  1
  Co  Co267  1  0.78531278  0.50000000  0.55339289  1
  Co  Co268  1  0.78531278  0.50000000  0.44660711  1
  Co  Co269  1  0.78531278  0.44660711  0.50000000  1
  Co  Co270  1  0.78531278  0.55339289  0.50000000  1
  Co  Co271  1  0.55339289  0.50000000  0.78531278  1
  Co  Co272  1  0.50000000  0.55339289  0.78531278  1
  Pt  Pt273  1  0.26496177  0.55882163  0.32496358  1
  Pt  Pt274  1  0.44117837  0.73503823  0.32496358  1
  Pt  Pt275  1  0.26496177  0.67503642  0.55882163  1
  Pt  Pt276  1  0.32496358  0.73503823  0.55882163  1
  Pt  Pt277  1  0.32496358  0.73503823  0.44117837  1
  Pt  Pt278  1  0.32496358  0.55882163  0.26496177  1
  Pt  Pt279  1  0.32496358  0.55882163  0.73503823  1
  Pt  Pt280  1  0.26496177  0.67503642  0.44117837  1
  Pt  Pt281  1  0.44117837  0.67503642  0.26496177  1
  Pt  Pt282  1  0.55882163  0.67503642  0.26496177  1
  Pt  Pt283  1  0.32496358  0.44117837  0.73503823  1
  Pt  Pt284  1  0.55882163  0.32496358  0.73503823  1
  Pt  Pt285  1  0.55882163  0.32496358  0.26496177  1
  Pt  Pt286  1  0.44117837  0.26496177  0.32496358  1
  Pt  Pt287  1  0.26496177  0.32496358  0.44117837  1
  Pt  Pt288  1  0.26496177  0.32496358  0.55882163  1
  Pt  Pt289  1  0.32496358  0.26496177  0.55882163  1
  Pt  Pt290  1  0.32496358  0.26496177  0.44117837  1
  Pt  Pt291  1  0.44117837  0.32496358  0.26496177  1
  Pt  Pt292  1  0.32496358  0.44117837  0.26496177  1
  Pt  Pt293  1  0.44117837  0.32496358  0.73503823  1
  Pt  Pt294  1  0.26496177  0.44117837  0.32496358  1
  Pt  Pt295  1  0.73503823  0.32496358  0.44117837  1
  Pt  Pt296  1  0.55882163  0.73503823  0.32496358  1
  Pt  Pt297  1  0.26496177  0.55882163  0.67503642  1
  Pt  Pt298  1  0.26496177  0.44117837  0.67503642  1
  Pt  Pt299  1  0.44117837  0.26496177  0.67503642  1
  Pt  Pt300  1  0.44117837  0.73503823  0.67503642  1
  Pt  Pt301  1  0.73503823  0.32496358  0.55882163  1
  Pt  Pt302  1  0.67503642  0.26496177  0.44117837  1
  Pt  Pt303  1  0.73503823  0.44117837  0.32496358  1
  Pt  Pt304  1  0.67503642  0.26496177  0.55882163  1
  Pt  Pt305  1  0.73503823  0.55882163  0.32496358  1
  Pt  Pt306  1  0.55882163  0.26496177  0.67503642  1
  Pt  Pt307  1  0.55882163  0.26496177  0.32496358  1
  Pt  Pt308  1  0.67503642  0.55882163  0.26496177  1
  Pt  Pt309  1  0.44117837  0.67503642  0.73503823  1
  Pt  Pt310  1  0.73503823  0.67503642  0.55882163  1
  Pt  Pt311  1  0.67503642  0.73503823  0.55882163  1
  Pt  Pt312  1  0.55882163  0.73503823  0.67503642  1
  Pt  Pt313  1  0.67503642  0.73503823  0.44117837  1
  Pt  Pt314  1  0.73503823  0.67503642  0.44117837  1
  Pt  Pt315  1  0.67503642  0.44117837  0.26496177  1
  Pt  Pt316  1  0.55882163  0.67503642  0.73503823  1
  Pt  Pt317  1  0.73503823  0.55882163  0.67503642  1
  Pt  Pt318  1  0.73503823  0.44117837  0.67503642  1
  Pt  Pt319  1  0.67503642  0.55882163  0.73503823  1
  Pt  Pt320  1  0.67503642  0.44117837  0.73503823  1
  Pt  Pt321  1  0.38555404  0.44757602  0.20337868  1
  Pt  Pt322  1  0.38555404  0.44757602  0.79662132  1
  Pt  Pt323  1  0.20337868  0.55242398  0.38555404  1
  Pt  Pt324  1  0.20337868  0.44757602  0.38555404  1
  Pt  Pt325  1  0.20337868  0.61444596  0.44757602  1
  Pt  Pt326  1  0.44757602  0.79662132  0.38555404  1
  Pt  Pt327  1  0.38555404  0.55242398  0.79662132  1
  Pt  Pt328  1  0.38555404  0.55242398  0.20337868  1
  Pt  Pt329  1  0.38555404  0.79662132  0.55242398  1
  Pt  Pt330  1  0.38555404  0.79662132  0.44757602  1
  Pt  Pt331  1  0.20337868  0.61444596  0.55242398  1
  Pt  Pt332  1  0.44757602  0.61444596  0.20337868  1
  Pt  Pt333  1  0.20337868  0.44757602  0.61444596  1
  Pt  Pt334  1  0.20337868  0.55242398  0.61444596  1
  Pt  Pt335  1  0.20337868  0.38555404  0.44757602  1
  Pt  Pt336  1  0.38555404  0.20337868  0.44757602  1
  Pt  Pt337  1  0.55242398  0.79662132  0.61444596  1
  Pt  Pt338  1  0.55242398  0.79662132  0.38555404  1
  Pt  Pt339  1  0.44757602  0.79662132  0.61444596  1
  Pt  Pt340  1  0.61444596  0.79662132  0.55242398  1
  Pt  Pt341  1  0.61444596  0.79662132  0.44757602  1
  Pt  Pt342  1  0.44757602  0.20337868  0.61444596  1
  Pt  Pt343  1  0.55242398  0.61444596  0.20337868  1
  Pt  Pt344  1  0.61444596  0.20337868  0.55242398  1
  Pt  Pt345  1  0.38555404  0.20337868  0.55242398  1
  Pt  Pt346  1  0.61444596  0.20337868  0.44757602  1
  Pt  Pt347  1  0.44757602  0.20337868  0.38555404  1
  Pt  Pt348  1  0.61444596  0.44757602  0.20337868  1
  Pt  Pt349  1  0.44757602  0.38555404  0.79662132  1
  Pt  Pt350  1  0.55242398  0.20337868  0.61444596  1
  Pt  Pt351  1  0.44757602  0.38555404  0.20337868  1
  Pt  Pt352  1  0.20337868  0.38555404  0.55242398  1
  Pt  Pt353  1  0.55242398  0.38555404  0.79662132  1
  Pt  Pt354  1  0.61444596  0.55242398  0.20337868  1
  Pt  Pt355  1  0.55242398  0.38555404  0.20337868  1
  Pt  Pt356  1  0.55242398  0.20337868  0.38555404  1
  Pt  Pt357  1  0.79662132  0.55242398  0.38555404  1
  Pt  Pt358  1  0.79662132  0.44757602  0.38555404  1
  Pt  Pt359  1  0.44757602  0.61444596  0.79662132  1
  Pt  Pt360  1  0.79662132  0.61444596  0.44757602  1
  Pt  Pt361  1  0.79662132  0.55242398  0.61444596  1
  Pt  Pt362  1  0.79662132  0.38555404  0.44757602  1
  Pt  Pt363  1  0.79662132  0.61444596  0.55242398  1
  Pt  Pt364  1  0.79662132  0.38555404  0.55242398  1
  Pt  Pt365  1  0.55242398  0.61444596  0.79662132  1
  Pt  Pt366  1  0.79662132  0.44757602  0.61444596  1
  Pt  Pt367  1  0.61444596  0.55242398  0.79662132  1
  Pt  Pt368  1  0.61444596  0.44757602  0.79662132  1
