# generated using pymatgen
data_Co273HPt96
_symmetry_space_group_name_H-M   'P 1'
_cell_length_a   30.00000000
_cell_length_b   30.00000000
_cell_length_c   30.00000000
_cell_angle_alpha   90.00000000
_cell_angle_beta   90.00000000
_cell_angle_gamma   90.00000000
_symmetry_Int_Tables_number   1
_chemical_formula_structural   Co273HPt96
_chemical_formula_sum   'Co273 H1 Pt96'
_cell_volume   27000.00000000
_cell_formula_units_Z   1
loop_
 _symmetry_equiv_pos_site_id
 _symmetry_equiv_pos_as_xyz
  1  'x, y, z'
loop_
 _atom_site_type_symbol
 _atom_site_label
 _atom_site_symmetry_multiplicity
 _atom_site_fract_x
 _atom_site_fract_y
 _atom_site_fract_z
 _atom_site_occupancy
  Co  Co0  1  0.50009237  0.49994351  0.49998992  1
  Co  Co1  1  0.44227953  0.50011085  0.44229116  1
  Co  Co2  1  0.44226641  0.55762442  0.49987678  1
  Co  Co3  1  0.50004011  0.55771622  0.44218700  1
  Co  Co4  1  0.44226769  0.44224091  0.49999014  1
  Co  Co5  1  0.44225668  0.49998571  0.55774719  1
  Co  Co6  1  0.49998615  0.44224710  0.44222742  1
  Co  Co7  1  0.50001442  0.44221653  0.55776897  1
  Co  Co8  1  0.55778101  0.49995243  0.44221652  1
  Co  Co9  1  0.55774523  0.55778383  0.50003816  1
  Co  Co10  1  0.55778033  0.44221402  0.49999884  1
  Co  Co11  1  0.50005458  0.55777115  0.55781323  1
  Co  Co12  1  0.55777444  0.49995790  0.55777595  1
  Co  Co13  1  0.50006368  0.61442604  0.50003221  1
  Co  Co14  1  0.49998668  0.49999724  0.38559569  1
  Co  Co15  1  0.38554956  0.49993645  0.49995404  1
  Co  Co16  1  0.50001566  0.38559011  0.49999376  1
  Co  Co17  1  0.50003499  0.50000416  0.61441796  1
  Co  Co18  1  0.61437616  0.49999979  0.50000467  1
  Co  Co19  1  0.44216657  0.61561759  0.44214783  1
  Co  Co20  1  0.38431074  0.55778348  0.44209641  1
  Co  Co21  1  0.44217173  0.55783868  0.38429880  1
  Co  Co22  1  0.38431754  0.55784108  0.55785776  1
  Co  Co23  1  0.44219360  0.44212963  0.38431763  1
  Co  Co24  1  0.38434715  0.44218321  0.44218479  1
  Co  Co25  1  0.38435879  0.44215223  0.55781898  1
  Co  Co26  1  0.44217883  0.38430608  0.44219351  1
  Co  Co27  1  0.44219404  0.44216819  0.61567373  1
  Co  Co28  1  0.44218853  0.61507592  0.55726225  1
  Co  Co29  1  0.44217751  0.38432348  0.55781526  1
  Co  Co30  1  0.55784032  0.61562166  0.44210598  1
  Co  Co31  1  0.55782361  0.55780184  0.38430826  1
  Co  Co32  1  0.55781446  0.44217632  0.38431367  1
  Co  Co33  1  0.44223649  0.55780867  0.61562934  1
  Co  Co34  1  0.55782404  0.38432472  0.44217676  1
  Co  Co35  1  0.61565365  0.44214332  0.44216620  1
  Co  Co36  1  0.61562613  0.55782320  0.44216726  1
  Co  Co37  1  0.55771014  0.61581543  0.55794576  1
  Co  Co38  1  0.55783357  0.38430878  0.55782604  1
  Co  Co39  1  0.55784073  0.44218161  0.61568133  1
  Co  Co40  1  0.55776880  0.55787682  0.61564327  1
  Co  Co41  1  0.61567693  0.44214495  0.55783553  1
  Co  Co42  1  0.61558776  0.55787490  0.55787322  1
  Co  Co43  1  0.38494178  0.61504611  0.49993728  1
  Co  Co44  1  0.38498787  0.49999808  0.61501818  1
  Co  Co45  1  0.50001573  0.61499080  0.38496690  1
  Co  Co46  1  0.38499887  0.49998892  0.38500227  1
  Co  Co47  1  0.49999852  0.38499070  0.38498921  1
  Co  Co48  1  0.50001840  0.38496697  0.61502646  1
  Co  Co49  1  0.38498983  0.38496171  0.49999861  1
  Co  Co50  1  0.49976856  0.61521265  0.61516877  1
  Co  Co51  1  0.61500345  0.49997413  0.38495438  1
  Co  Co52  1  0.61496289  0.61502699  0.50004676  1
  Co  Co53  1  0.61502108  0.38496889  0.50002018  1
  Co  Co54  1  0.61500946  0.50000050  0.61504025  1
  Co  Co55  1  0.32757491  0.55784171  0.50001060  1
  Co  Co56  1  0.32753628  0.49996756  0.44216222  1
  Co  Co57  1  0.44219973  0.49998971  0.32755771  1
  Co  Co58  1  0.32758670  0.49996867  0.55780687  1
  Co  Co59  1  0.50002269  0.55780620  0.32754123  1
  Co  Co60  1  0.49998707  0.44217720  0.32755678  1
  Co  Co61  1  0.32755656  0.44216174  0.50000510  1
  Co  Co62  1  0.44218718  0.67234923  0.49996568  1
  Co  Co63  1  0.55782675  0.32752455  0.50001145  1
  Co  Co64  1  0.50001092  0.32754728  0.55781856  1
  Co  Co65  1  0.49999599  0.32753247  0.44217694  1
  Co  Co66  1  0.55781985  0.50000146  0.32754252  1
  Co  Co67  1  0.50002226  0.67237022  0.44217072  1
  Co  Co68  1  0.50002057  0.44218316  0.67243822  1
  Co  Co69  1  0.44219492  0.32755310  0.50000559  1
  Co  Co70  1  0.44220952  0.50000243  0.67244733  1
  Co  Co71  1  0.49977383  0.67253647  0.55797118  1
  Co  Co72  1  0.55775894  0.67238566  0.50001666  1
  Co  Co73  1  0.67240968  0.44217422  0.49997822  1
  Co  Co74  1  0.50001815  0.55786557  0.67246024  1
  Co  Co75  1  0.67238805  0.49998739  0.44216430  1
  Co  Co76  1  0.67237081  0.55780168  0.49999848  1
  Co  Co77  1  0.67238220  0.50001566  0.55782245  1
  Co  Co78  1  0.55780020  0.50003750  0.67246649  1
  Co  Co79  1  0.38490309  0.61508095  0.38489579  1
  Co  Co80  1  0.38512273  0.61516923  0.61509345  1
  Co  Co81  1  0.38492391  0.38491105  0.61508460  1
  Co  Co82  1  0.38494660  0.38491712  0.38490198  1
  Co  Co83  1  0.61507656  0.61506207  0.38488869  1
  Co  Co84  1  0.61509273  0.38490081  0.38489782  1
  Co  Co85  1  0.61498455  0.61515746  0.61506099  1
  Co  Co86  1  0.61507549  0.38489501  0.61511022  1
  Co  Co87  1  0.32761489  0.61477477  0.44279290  1
  Co  Co88  1  0.44284561  0.61477110  0.32760042  1
  Co  Co89  1  0.32767997  0.55722401  0.61474718  1
  Co  Co90  1  0.32775564  0.61480479  0.55717619  1
  Co  Co91  1  0.38524053  0.55715914  0.32762345  1
  Co  Co92  1  0.32760362  0.55715217  0.38518437  1
  Co  Co93  1  0.32765517  0.44281248  0.61476197  1
  Co  Co94  1  0.32764601  0.44283196  0.38523073  1
  Co  Co95  1  0.38525694  0.44282337  0.32760713  1
  Co  Co96  1  0.44282549  0.38520953  0.32761283  1
  Co  Co97  1  0.38523336  0.67232593  0.44278502  1
  Co  Co98  1  0.32764422  0.38522229  0.44281183  1
  Co  Co99  1  0.38525684  0.55714570  0.67233673  1
  Co  Co100  1  0.44284137  0.67235119  0.38520254  1
  Co  Co101  1  0.32762741  0.38521027  0.55718529  1
  Co  Co102  1  0.55714518  0.38519882  0.32761241  1
  Co  Co103  1  0.61477021  0.32762501  0.44283757  1
  Co  Co104  1  0.55716225  0.61475884  0.32760832  1
  Co  Co105  1  0.38526185  0.44283604  0.67237625  1
  Co  Co106  1  0.61477764  0.55715535  0.32761593  1
  Co  Co107  1  0.38546897  0.67238963  0.55732386  1
  Co  Co108  1  0.44282373  0.32763680  0.38523744  1
  Co  Co109  1  0.44283925  0.32761991  0.61474644  1
  Co  Co110  1  0.61477907  0.32762563  0.55717548  1
  Co  Co111  1  0.61477640  0.44282981  0.32761212  1
  Co  Co112  1  0.38524112  0.32762266  0.55717094  1
  Co  Co113  1  0.55718563  0.32761205  0.61476188  1
  Co  Co114  1  0.55717259  0.32762643  0.38523127  1
  Co  Co115  1  0.38523294  0.32763073  0.44281954  1
  Co  Co116  1  0.61471257  0.67233249  0.44283860  1
  Co  Co117  1  0.44283337  0.38522313  0.67236330  1
  Co  Co118  1  0.44299504  0.67250015  0.61486906  1
  Co  Co119  1  0.55716203  0.67236723  0.38520400  1
  Co  Co120  1  0.44282510  0.61484000  0.67235207  1
  Co  Co121  1  0.67229672  0.61475831  0.44283665  1
  Co  Co122  1  0.55717651  0.38522113  0.67236674  1
  Co  Co123  1  0.61472762  0.67240511  0.55721532  1
  Co  Co124  1  0.55686702  0.67256927  0.61495821  1
  Co  Co125  1  0.67233393  0.55713237  0.38517862  1
  Co  Co126  1  0.67236018  0.44282521  0.38520684  1
  Co  Co127  1  0.55731215  0.61466841  0.67234708  1
  Co  Co128  1  0.67235477  0.61480036  0.55717977  1
  Co  Co129  1  0.67235614  0.38520407  0.44283277  1
  Co  Co130  1  0.61470028  0.55720033  0.67238418  1
  Co  Co131  1  0.61476083  0.44285272  0.67240660  1
  Co  Co132  1  0.67232749  0.44287465  0.61481776  1
  Co  Co133  1  0.67236656  0.38520510  0.55718249  1
  Co  Co134  1  0.67233885  0.55716000  0.61479742  1
  Co  Co135  1  0.27266254  0.49999969  0.50001755  1
  Co  Co136  1  0.50000816  0.72721567  0.49996874  1
  Co  Co137  1  0.50000675  0.49997439  0.27264723  1
  Co  Co138  1  0.49997973  0.27265651  0.50001073  1
  Co  Co139  1  0.50000287  0.49999133  0.72733218  1
  Co  Co140  1  0.72729835  0.49999939  0.49998567  1
  Co  Co141  1  0.44254757  0.55746618  0.27066731  1
  Co  Co142  1  0.44251436  0.72923143  0.44247929  1
  Co  Co143  1  0.27073968  0.55750815  0.55746120  1
  Co  Co144  1  0.27069181  0.55750202  0.44257021  1
  Co  Co145  1  0.32782091  0.49998473  0.32776424  1
  Co  Co146  1  0.32783707  0.67222164  0.50000596  1
  Co  Co147  1  0.44252904  0.44252135  0.27066518  1
  Co  Co148  1  0.44254786  0.44251270  0.72929790  1
  Co  Co149  1  0.27066891  0.44250034  0.44253296  1
  Co  Co150  1  0.49998977  0.67220324  0.32777385  1
  Co  Co151  1  0.49998920  0.32779811  0.32780066  1
  Co  Co152  1  0.27069811  0.44250773  0.55748574  1
  Co  Co153  1  0.32782868  0.49998702  0.67221821  1
  Co  Co154  1  0.44255277  0.72931443  0.55753245  1
  Co  Co155  1  0.55746179  0.72928674  0.44252663  1
  Co  Co156  1  0.32779405  0.32778905  0.50000616  1
  Co  Co157  1  0.44250654  0.27067203  0.44254038  1
  Co  Co158  1  0.44253002  0.27067196  0.55746373  1
  Co  Co159  1  0.55746811  0.27068989  0.44251749  1
  Co  Co160  1  0.55749090  0.55747144  0.27065956  1
  Co  Co161  1  0.55749461  0.44252713  0.27068601  1
  Co  Co162  1  0.67220307  0.32775383  0.50001841  1
  Co  Co163  1  0.55746188  0.27064872  0.55747834  1
  Co  Co164  1  0.50000527  0.32778904  0.67220213  1
  Co  Co165  1  0.55759459  0.72931353  0.55727984  1
  Co  Co166  1  0.44252846  0.55745533  0.72929534  1
  Co  Co167  1  0.72929662  0.44249509  0.44251737  1
  Co  Co168  1  0.67222996  0.49997036  0.32774719  1
  Co  Co169  1  0.72926002  0.55746311  0.44250426  1
  Co  Co170  1  0.55739340  0.55757458  0.72934567  1
  Co  Co171  1  0.72927017  0.44254443  0.55749837  1
  Co  Co172  1  0.72925361  0.55748458  0.55748294  1
  Co  Co173  1  0.55748672  0.44252186  0.72929773  1
  Co  Co174  1  0.49934064  0.67261766  0.67235772  1
  Co  Co175  1  0.67213614  0.67223280  0.50002167  1
  Co  Co176  1  0.67214848  0.50006562  0.67225710  1
  Co  Co177  1  0.27060721  0.50002263  0.61387516  1
  Co  Co178  1  0.38618563  0.72937064  0.49999525  1
  Co  Co179  1  0.27055085  0.50000199  0.38615447  1
  Co  Co180  1  0.27052604  0.61391662  0.50004177  1
  Co  Co181  1  0.27050435  0.38609510  0.50000445  1
  Co  Co182  1  0.50000564  0.38616010  0.27055215  1
  Co  Co183  1  0.49998501  0.72937443  0.38614006  1
  Co  Co184  1  0.38616228  0.49998393  0.72947201  1
  Co  Co185  1  0.38616116  0.50000168  0.27050526  1
  Co  Co186  1  0.50002116  0.38612785  0.72939379  1
  Co  Co187  1  0.50000461  0.61384142  0.27052821  1
  Co  Co188  1  0.49998445  0.27056244  0.38615711  1
  Co  Co189  1  0.49979478  0.61401754  0.72937324  1
  Co  Co190  1  0.61382465  0.72952329  0.49998186  1
  Co  Co191  1  0.61386606  0.27049644  0.50000745  1
  Co  Co192  1  0.49999743  0.27054887  0.61384460  1
  Co  Co193  1  0.38614449  0.27051556  0.50000082  1
  Co  Co194  1  0.72938458  0.61382071  0.50001102  1
  Co  Co195  1  0.61390146  0.50000253  0.27048756  1
  Co  Co196  1  0.72945573  0.49998436  0.38611158  1
  Co  Co197  1  0.49943465  0.72959443  0.61424798  1
  Co  Co198  1  0.72943112  0.38615110  0.50001499  1
  Co  Co199  1  0.72937104  0.50003823  0.61391401  1
  Co  Co200  1  0.61384397  0.50004061  0.72954438  1
  Co  Co201  1  0.32836937  0.61620695  0.32834300  1
  Co  Co202  1  0.38379158  0.67160594  0.32832061  1
  Co  Co203  1  0.38379093  0.32835746  0.32833577  1
  Co  Co204  1  0.32836090  0.38379713  0.32839662  1
  Co  Co205  1  0.61621046  0.32835893  0.32837119  1
  Co  Co206  1  0.32837299  0.67163338  0.38374897  1
  Co  Co207  1  0.32838063  0.32833408  0.61621802  1
  Co  Co208  1  0.32849077  0.61619425  0.67163976  1
  Co  Co209  1  0.32838655  0.32834606  0.38378516  1
  Co  Co210  1  0.32837787  0.38376783  0.67162431  1
  Co  Co211  1  0.67162949  0.32836541  0.38377846  1
  Co  Co212  1  0.32839352  0.67151116  0.61610172  1
  Co  Co213  1  0.61623376  0.32833522  0.67162933  1
  Co  Co214  1  0.61618598  0.67162883  0.32833910  1
  Co  Co215  1  0.38379090  0.32834671  0.67163225  1
  Co  Co216  1  0.67165533  0.32833549  0.61622826  1
  Co  Co217  1  0.67163533  0.38378358  0.32833849  1
  Co  Co218  1  0.38395179  0.67164473  0.67145308  1
  Co  Co219  1  0.67159366  0.61623859  0.32836199  1
  Co  Co220  1  0.67155005  0.67165256  0.38381034  1
  Co  Co221  1  0.61614534  0.67164554  0.67157960  1
  Co  Co222  1  0.67161642  0.38377297  0.67163314  1
  Co  Co223  1  0.67153659  0.61625854  0.67162202  1
  Co  Co224  1  0.67157650  0.67167179  0.61625645  1
  Co  Co225  1  0.38491915  0.73106504  0.38491945  1
  Co  Co226  1  0.26889466  0.61502593  0.38490414  1
  Co  Co227  1  0.38495142  0.61504155  0.26882594  1
  Co  Co228  1  0.26892261  0.61507792  0.61500100  1
  Co  Co229  1  0.61498585  0.73115212  0.38495399  1
  Co  Co230  1  0.38503345  0.73089993  0.61513534  1
  Co  Co231  1  0.38496081  0.38493718  0.73111855  1
  Co  Co232  1  0.26892247  0.38494872  0.38490288  1
  Co  Co233  1  0.61503192  0.26890214  0.38492291  1
  Co  Co234  1  0.61506427  0.26889190  0.61505947  1
  Co  Co235  1  0.26889374  0.38492178  0.61508327  1
  Co  Co236  1  0.38496838  0.38492767  0.26886953  1
  Co  Co237  1  0.38494751  0.26889979  0.38490995  1
  Co  Co238  1  0.38494532  0.26887262  0.61504039  1
  Co  Co239  1  0.61505464  0.61506003  0.26886899  1
  Co  Co240  1  0.61490558  0.73114279  0.61510672  1
  Co  Co241  1  0.38500939  0.61502446  0.73108240  1
  Co  Co242  1  0.61507645  0.38491920  0.26890469  1
  Co  Co243  1  0.73101661  0.61513999  0.38500481  1
  Co  Co244  1  0.73107249  0.38490600  0.38494723  1
  Co  Co245  1  0.73106192  0.38494391  0.61509006  1
  Co  Co246  1  0.61506885  0.38489825  0.73105906  1
  Co  Co247  1  0.73107753  0.61508297  0.61507786  1
  Co  Co248  1  0.61496153  0.61517019  0.73110704  1
  Co  Co249  1  0.50005835  0.44677716  0.78501499  1
  Co  Co250  1  0.50003132  0.55321134  0.21495941  1
  Co  Co251  1  0.21497098  0.50001061  0.44681907  1
  Co  Co252  1  0.21499998  0.50000015  0.55323026  1
  Co  Co253  1  0.50003218  0.44678155  0.21494910  1
  Co  Co254  1  0.49991636  0.78491334  0.44673396  1
  Co  Co255  1  0.44677173  0.50001225  0.21491777  1
  Co  Co256  1  0.44675131  0.49993958  0.78504065  1
  Co  Co257  1  0.21496023  0.55326727  0.50002446  1
  Co  Co258  1  0.21495448  0.44671410  0.50002472  1
  Co  Co259  1  0.44669377  0.78493929  0.49997480  1
  Co  Co260  1  0.49998195  0.21495568  0.55323300  1
  Co  Co261  1  0.55314534  0.78515782  0.49995273  1
  Co  Co262  1  0.49999247  0.21497272  0.44677915  1
  Co  Co263  1  0.55325240  0.21493197  0.49999805  1
  Co  Co264  1  0.55331048  0.49999362  0.21493860  1
  Co  Co265  1  0.44671744  0.21493758  0.50000660  1
  Co  Co266  1  0.50001659  0.78483672  0.55321932  1
  Co  Co267  1  0.78495312  0.50003360  0.55326508  1
  Co  Co268  1  0.78499907  0.50001955  0.44673189  1
  Co  Co269  1  0.78499109  0.44677900  0.50000883  1
  Co  Co270  1  0.78496792  0.55325901  0.49999723  1
  Co  Co271  1  0.55332289  0.50002548  0.78499227  1
  Co  Co272  1  0.49999323  0.55309683  0.78508660  1
  H  H273  1  0.41569442  0.77074172  0.70936011  1
  Pt  Pt274  1  0.26510939  0.55869320  0.32504589  1
  Pt  Pt275  1  0.44125211  0.73483215  0.32504565  1
  Pt  Pt276  1  0.26505266  0.67493900  0.55871753  1
  Pt  Pt277  1  0.32510941  0.73477384  0.55865357  1
  Pt  Pt278  1  0.32507940  0.73485216  0.44129260  1
  Pt  Pt279  1  0.32509981  0.55872816  0.26508209  1
  Pt  Pt280  1  0.32511662  0.55875034  0.73493517  1
  Pt  Pt281  1  0.26511941  0.67489094  0.44124771  1
  Pt  Pt282  1  0.44129521  0.67487304  0.26506922  1
  Pt  Pt283  1  0.55871328  0.67489899  0.26509790  1
  Pt  Pt284  1  0.32507744  0.44122966  0.73489457  1
  Pt  Pt285  1  0.55873654  0.32505450  0.73486799  1
  Pt  Pt286  1  0.55873362  0.32507972  0.26512171  1
  Pt  Pt287  1  0.44128163  0.26511581  0.32504848  1
  Pt  Pt288  1  0.26510977  0.32508432  0.44126049  1
  Pt  Pt289  1  0.26510412  0.32506533  0.55872858  1
  Pt  Pt290  1  0.32507471  0.26509856  0.55871426  1
  Pt  Pt291  1  0.32509249  0.26511655  0.44124683  1
  Pt  Pt292  1  0.44129134  0.32508913  0.26508808  1
  Pt  Pt293  1  0.32510506  0.44126069  0.26508408  1
  Pt  Pt294  1  0.44128314  0.32507109  0.73487152  1
  Pt  Pt295  1  0.26513128  0.44125797  0.32505322  1
  Pt  Pt296  1  0.73484790  0.32508420  0.44127432  1
  Pt  Pt297  1  0.55870217  0.73486338  0.32505928  1
  Pt  Pt298  1  0.26520287  0.55879623  0.67491872  1
  Pt  Pt299  1  0.26513176  0.44125727  0.67492224  1
  Pt  Pt300  1  0.44127569  0.26510531  0.67490501  1
  Pt  Pt301  1  0.43944824  0.73670222  0.67661588  1
  Pt  Pt302  1  0.73489605  0.32509168  0.55873625  1
  Pt  Pt303  1  0.67490438  0.26510008  0.44127536  1
  Pt  Pt304  1  0.73490460  0.44124816  0.32507708  1
  Pt  Pt305  1  0.67492131  0.26509329  0.55872484  1
  Pt  Pt306  1  0.73485925  0.55877208  0.32511904  1
  Pt  Pt307  1  0.55873511  0.26509378  0.67490879  1
  Pt  Pt308  1  0.55870553  0.26510269  0.32506205  1
  Pt  Pt309  1  0.67493694  0.55873675  0.26512395  1
  Pt  Pt310  1  0.44136107  0.67481827  0.73532565  1
  Pt  Pt311  1  0.73478208  0.67493285  0.55873752  1
  Pt  Pt312  1  0.67479615  0.73490494  0.55874420  1
  Pt  Pt313  1  0.55846638  0.73483946  0.67489667  1
  Pt  Pt314  1  0.67475863  0.73495000  0.44136117  1
  Pt  Pt315  1  0.73474934  0.67496083  0.44135754  1
  Pt  Pt316  1  0.67493421  0.44126317  0.26509511  1
  Pt  Pt317  1  0.55848152  0.67493076  0.73477125  1
  Pt  Pt318  1  0.73484133  0.55879486  0.67496552  1
  Pt  Pt319  1  0.73484209  0.44129415  0.67492838  1
  Pt  Pt320  1  0.67483952  0.55881991  0.73488041  1
  Pt  Pt321  1  0.67489457  0.44124719  0.73488892  1
  Pt  Pt322  1  0.38573674  0.44763647  0.20350977  1
  Pt  Pt323  1  0.38566579  0.44760629  0.79647502  1
  Pt  Pt324  1  0.20342809  0.55212534  0.38557074  1
  Pt  Pt325  1  0.20343201  0.44790629  0.38556994  1
  Pt  Pt326  1  0.20358185  0.61424130  0.44751994  1
  Pt  Pt327  1  0.44781300  0.79649136  0.38553741  1
  Pt  Pt328  1  0.38560215  0.55214053  0.79658974  1
  Pt  Pt329  1  0.38569084  0.55233882  0.20347148  1
  Pt  Pt330  1  0.38573640  0.79632708  0.55245253  1
  Pt  Pt331  1  0.38574127  0.79637101  0.44751910  1
  Pt  Pt332  1  0.20347211  0.61430207  0.55240226  1
  Pt  Pt333  1  0.44779366  0.61431274  0.20343747  1
  Pt  Pt334  1  0.20347314  0.44783736  0.61442507  1
  Pt  Pt335  1  0.20355046  0.55222787  0.61439748  1
  Pt  Pt336  1  0.20358142  0.38576440  0.44748555  1
  Pt  Pt337  1  0.38569048  0.20352560  0.44761065  1
  Pt  Pt338  1  0.55198623  0.79635255  0.61443906  1
  Pt  Pt339  1  0.55212001  0.79649514  0.38557484  1
  Pt  Pt340  1  0.44808718  0.79688606  0.61406203  1
  Pt  Pt341  1  0.61413101  0.79648396  0.55248484  1
  Pt  Pt342  1  0.61418895  0.79654935  0.44754461  1
  Pt  Pt343  1  0.44776111  0.20346521  0.61437533  1
  Pt  Pt344  1  0.55222131  0.61436589  0.20345666  1
  Pt  Pt345  1  0.61426716  0.20353656  0.55242020  1
  Pt  Pt346  1  0.38568401  0.20351817  0.55237460  1
  Pt  Pt347  1  0.61424341  0.20356987  0.44754468  1
  Pt  Pt348  1  0.44779975  0.20350604  0.38560625  1
  Pt  Pt349  1  0.61427969  0.44754129  0.20354881  1
  Pt  Pt350  1  0.44781249  0.38564553  0.79649144  1
  Pt  Pt351  1  0.55218576  0.20345135  0.61440311  1
  Pt  Pt352  1  0.44781263  0.38562870  0.20345273  1
  Pt  Pt353  1  0.20355577  0.38571848  0.55248924  1
  Pt  Pt354  1  0.55219359  0.38555998  0.79650722  1
  Pt  Pt355  1  0.61432562  0.55241938  0.20353295  1
  Pt  Pt356  1  0.55217594  0.38557416  0.20345237  1
  Pt  Pt357  1  0.55214921  0.20345095  0.38559266  1
  Pt  Pt358  1  0.79640215  0.55246919  0.38575996  1
  Pt  Pt359  1  0.79641683  0.44756351  0.38575127  1
  Pt  Pt360  1  0.44772043  0.61397976  0.79665831  1
  Pt  Pt361  1  0.79643443  0.61446231  0.44779007  1
  Pt  Pt362  1  0.79639509  0.55236207  0.61432440  1
  Pt  Pt363  1  0.79650380  0.38558421  0.44782559  1
  Pt  Pt364  1  0.79643828  0.61439636  0.55223908  1
  Pt  Pt365  1  0.79644017  0.38576373  0.55238905  1
  Pt  Pt366  1  0.55206835  0.61441990  0.79645916  1
  Pt  Pt367  1  0.79648631  0.44781817  0.61440520  1
  Pt  Pt368  1  0.61425150  0.55254573  0.79645299  1
  Pt  Pt369  1  0.61427112  0.44751525  0.79643943  1
