# generated using pymatgen
data_Ni161HPt176
_symmetry_space_group_name_H-M   'P 1'
_cell_length_a   30.00000000
_cell_length_b   30.00000000
_cell_length_c   30.00000000
_cell_angle_alpha   90.00000000
_cell_angle_beta   90.00000000
_cell_angle_gamma   90.00000000
_symmetry_Int_Tables_number   1
_chemical_formula_structural   Ni161HPt176
_chemical_formula_sum   'Ni161 H1 Pt176'
_cell_volume   27000.00000000
_cell_formula_units_Z   1
loop_
 _symmetry_equiv_pos_site_id
 _symmetry_equiv_pos_as_xyz
  1  'x, y, z'
loop_
 _atom_site_type_symbol
 _atom_site_label
 _atom_site_symmetry_multiplicity
 _atom_site_fract_x
 _atom_site_fract_y
 _atom_site_fract_z
 _atom_site_occupancy
  Ni  Ni0  1  0.50000000  0.50000000  0.50000000  1
  Ni  Ni1  1  0.56424000  0.50000000  0.56424000  1
  Ni  Ni2  1  0.56424000  0.50000000  0.43576000  1
  Ni  Ni3  1  0.43576000  0.50000000  0.56424000  1
  Ni  Ni4  1  0.43576000  0.50000000  0.43576000  1
  Ni  Ni5  1  0.50000000  0.38108000  0.50000000  1
  Ni  Ni6  1  0.50000000  0.61892000  0.50000000  1
  Ni  Ni7  1  0.37151000  0.50000000  0.50000000  1
  Ni  Ni8  1  0.50000000  0.50000000  0.37151000  1
  Ni  Ni9  1  0.62849000  0.50000000  0.50000000  1
  Ni  Ni10  1  0.50000000  0.50000000  0.62849000  1
  Ni  Ni11  1  0.56424000  0.38108000  0.56424000  1
  Ni  Ni12  1  0.56424000  0.61892000  0.56424000  1
  Ni  Ni13  1  0.56424000  0.38108000  0.43576000  1
  Ni  Ni14  1  0.43576000  0.38108000  0.56424000  1
  Ni  Ni15  1  0.56424000  0.61892000  0.43576000  1
  Ni  Ni16  1  0.43576000  0.61892000  0.56424000  1
  Ni  Ni17  1  0.43576000  0.38108000  0.43576000  1
  Ni  Ni18  1  0.43576000  0.61892000  0.43576000  1
  Ni  Ni19  1  0.62849000  0.38108000  0.50000000  1
  Ni  Ni20  1  0.37151000  0.38108000  0.50000000  1
  Ni  Ni21  1  0.50000000  0.38108000  0.37151000  1
  Ni  Ni22  1  0.37151000  0.61892000  0.50000000  1
  Ni  Ni23  1  0.50000000  0.61892000  0.37151000  1
  Ni  Ni24  1  0.62849000  0.61892000  0.50000000  1
  Ni  Ni25  1  0.50000000  0.61892000  0.62849000  1
  Ni  Ni26  1  0.50000000  0.38108000  0.62849000  1
  Ni  Ni27  1  0.37151000  0.50000000  0.37151000  1
  Ni  Ni28  1  0.62849000  0.50000000  0.37151000  1
  Ni  Ni29  1  0.62849000  0.50000000  0.62849000  1
  Ni  Ni30  1  0.37151000  0.50000000  0.62849000  1
  Ni  Ni31  1  0.69273000  0.50000000  0.56424000  1
  Ni  Ni32  1  0.56424000  0.50000000  0.69273000  1
  Ni  Ni33  1  0.43576000  0.50000000  0.69273000  1
  Ni  Ni34  1  0.69273000  0.50000000  0.43576000  1
  Ni  Ni35  1  0.30727000  0.50000000  0.56424000  1
  Ni  Ni36  1  0.56424000  0.50000000  0.30727000  1
  Ni  Ni37  1  0.30727000  0.50000000  0.43576000  1
  Ni  Ni38  1  0.43576000  0.50000000  0.30727000  1
  Ni  Ni39  1  0.62849000  0.38108000  0.37151000  1
  Ni  Ni40  1  0.37151000  0.38108000  0.37151000  1
  Ni  Ni41  1  0.62849000  0.38108000  0.62849000  1
  Ni  Ni42  1  0.37151000  0.61892000  0.37151000  1
  Ni  Ni43  1  0.37151000  0.61892000  0.62849000  1
  Ni  Ni44  1  0.62849000  0.61892000  0.37151000  1
  Ni  Ni45  1  0.62849000  0.61892000  0.62849000  1
  Ni  Ni46  1  0.37151000  0.38108000  0.62849000  1
  Ni  Ni47  1  0.69273000  0.38108000  0.56424000  1
  Ni  Ni48  1  0.56424000  0.38108000  0.69273000  1
  Ni  Ni49  1  0.69273000  0.61892000  0.56424000  1
  Ni  Ni50  1  0.56424000  0.61892000  0.69273000  1
  Ni  Ni51  1  0.69273000  0.38108000  0.43576000  1
  Ni  Ni52  1  0.69273000  0.61892000  0.43576000  1
  Ni  Ni53  1  0.43576000  0.61892000  0.69273000  1
  Ni  Ni54  1  0.43576000  0.38108000  0.69273000  1
  Ni  Ni55  1  0.30727000  0.38108000  0.56424000  1
  Ni  Ni56  1  0.56424000  0.38108000  0.30727000  1
  Ni  Ni57  1  0.56424000  0.61892000  0.30727000  1
  Ni  Ni58  1  0.30727000  0.61892000  0.56424000  1
  Ni  Ni59  1  0.43576000  0.38108000  0.30727000  1
  Ni  Ni60  1  0.43576000  0.61892000  0.30727000  1
  Ni  Ni61  1  0.30727000  0.61892000  0.43576000  1
  Ni  Ni62  1  0.30727000  0.38108000  0.43576000  1
  Ni  Ni63  1  0.50000000  0.26215000  0.50000000  1
  Ni  Ni64  1  0.50000000  0.73785000  0.50000000  1
  Ni  Ni65  1  0.56424000  0.26215000  0.56424000  1
  Ni  Ni66  1  0.56424000  0.73785000  0.56424000  1
  Ni  Ni67  1  0.56424000  0.26215000  0.43576000  1
  Ni  Ni68  1  0.43576000  0.26215000  0.56424000  1
  Ni  Ni69  1  0.56424000  0.73785000  0.43576000  1
  Ni  Ni70  1  0.43576000  0.73785000  0.56424000  1
  Ni  Ni71  1  0.43576000  0.73785000  0.43576000  1
  Ni  Ni72  1  0.43576000  0.26215000  0.43576000  1
  Ni  Ni73  1  0.50000000  0.50000000  0.75698000  1
  Ni  Ni74  1  0.24302000  0.50000000  0.50000000  1
  Ni  Ni75  1  0.50000000  0.50000000  0.24302000  1
  Ni  Ni76  1  0.75698000  0.50000000  0.50000000  1
  Ni  Ni77  1  0.37151000  0.73785000  0.50000000  1
  Ni  Ni78  1  0.62849000  0.26215000  0.50000000  1
  Ni  Ni79  1  0.37151000  0.26215000  0.50000000  1
  Ni  Ni80  1  0.50000000  0.26215000  0.37151000  1
  Ni  Ni81  1  0.50000000  0.73785000  0.37151000  1
  Ni  Ni82  1  0.50000000  0.73785000  0.62849000  1
  Ni  Ni83  1  0.62849000  0.73785000  0.50000000  1
  Ni  Ni84  1  0.50000000  0.26215000  0.62849000  1
  Ni  Ni85  1  0.69273000  0.50000000  0.69273000  1
  Ni  Ni86  1  0.69273000  0.50000000  0.30727000  1
  Ni  Ni87  1  0.30727000  0.50000000  0.69273000  1
  Ni  Ni88  1  0.30727000  0.50000000  0.30727000  1
  Ni  Ni89  1  0.75698000  0.38108000  0.50000000  1
  Ni  Ni90  1  0.50000000  0.61892000  0.75698000  1
  Ni  Ni91  1  0.24302000  0.61892000  0.50000000  1
  Ni  Ni92  1  0.50000000  0.38108000  0.24302000  1
  Ni  Ni93  1  0.50000000  0.61892000  0.24302000  1
  Ni  Ni94  1  0.24302000  0.38108000  0.50000000  1
  Ni  Ni95  1  0.50000000  0.38108000  0.75698000  1
  Ni  Ni96  1  0.75698000  0.61892000  0.50000000  1
  Ni  Ni97  1  0.24302000  0.50000000  0.37151000  1
  Ni  Ni98  1  0.62849000  0.50000000  0.75698000  1
  Ni  Ni99  1  0.37151000  0.50000000  0.24302000  1
  Ni  Ni100  1  0.62849000  0.50000000  0.24302000  1
  Ni  Ni101  1  0.24302000  0.50000000  0.62849000  1
  Ni  Ni102  1  0.75698000  0.50000000  0.37151000  1
  Ni  Ni103  1  0.37151000  0.50000000  0.75698000  1
  Ni  Ni104  1  0.75698000  0.50000000  0.62849000  1
  Ni  Ni105  1  0.69273000  0.38108000  0.69273000  1
  Ni  Ni106  1  0.69273000  0.61892000  0.69273000  1
  Ni  Ni107  1  0.69273000  0.38108000  0.30727000  1
  Ni  Ni108  1  0.30727000  0.38108000  0.69273000  1
  Ni  Ni109  1  0.69273000  0.61892000  0.30727000  1
  Ni  Ni110  1  0.30727000  0.61892000  0.69273000  1
  Ni  Ni111  1  0.30727000  0.38108000  0.30727000  1
  Ni  Ni112  1  0.30727000  0.61892000  0.30727000  1
  Ni  Ni113  1  0.37151000  0.73785000  0.37151000  1
  Ni  Ni114  1  0.62849000  0.26215000  0.37151000  1
  Ni  Ni115  1  0.37151000  0.26215000  0.37151000  1
  Ni  Ni116  1  0.62849000  0.73785000  0.62849000  1
  Ni  Ni117  1  0.37151000  0.73785000  0.62849000  1
  Ni  Ni118  1  0.62849000  0.73785000  0.37151000  1
  Ni  Ni119  1  0.37151000  0.26215000  0.62849000  1
  Ni  Ni120  1  0.62849000  0.26215000  0.62849000  1
  Ni  Ni121  1  0.37151000  0.61892000  0.75698000  1
  Ni  Ni122  1  0.75698000  0.38108000  0.37151000  1
  Ni  Ni123  1  0.62849000  0.38108000  0.75698000  1
  Ni  Ni124  1  0.62849000  0.38108000  0.24302000  1
  Ni  Ni125  1  0.62849000  0.61892000  0.75698000  1
  Ni  Ni126  1  0.62849000  0.61892000  0.24302000  1
  Ni  Ni127  1  0.75698000  0.38108000  0.62849000  1
  Ni  Ni128  1  0.37151000  0.61892000  0.24302000  1
  Ni  Ni129  1  0.37151000  0.38108000  0.24302000  1
  Ni  Ni130  1  0.24302000  0.61892000  0.37151000  1
  Ni  Ni131  1  0.24302000  0.38108000  0.37151000  1
  Ni  Ni132  1  0.24302000  0.38108000  0.62849000  1
  Ni  Ni133  1  0.37151000  0.38108000  0.75698000  1
  Ni  Ni134  1  0.75698000  0.61892000  0.37151000  1
  Ni  Ni135  1  0.75698000  0.61892000  0.62849000  1
  Ni  Ni136  1  0.24302000  0.61892000  0.62849000  1
  Ni  Ni137  1  0.69273000  0.26215000  0.56424000  1
  Ni  Ni138  1  0.69273000  0.73785000  0.56424000  1
  Ni  Ni139  1  0.56424000  0.26215000  0.69273000  1
  Ni  Ni140  1  0.56424000  0.73785000  0.69273000  1
  Ni  Ni141  1  0.69273000  0.26215000  0.43576000  1
  Ni  Ni142  1  0.69273000  0.73785000  0.43576000  1
  Ni  Ni143  1  0.43576000  0.26215000  0.69273000  1
  Ni  Ni144  1  0.43576000  0.73785000  0.69273000  1
  Ni  Ni145  1  0.56424000  0.26215000  0.30727000  1
  Ni  Ni146  1  0.30727000  0.26215000  0.56424000  1
  Ni  Ni147  1  0.30727000  0.73785000  0.56424000  1
  Ni  Ni148  1  0.56424000  0.73785000  0.30727000  1
  Ni  Ni149  1  0.30727000  0.73785000  0.43576000  1
  Ni  Ni150  1  0.43576000  0.73785000  0.30727000  1
  Ni  Ni151  1  0.30727000  0.26215000  0.43576000  1
  Ni  Ni152  1  0.43576000  0.26215000  0.30727000  1
  Ni  Ni153  1  0.56424000  0.50000000  0.82122000  1
  Ni  Ni154  1  0.82122000  0.50000000  0.56424000  1
  Ni  Ni155  1  0.82122000  0.50000000  0.43576000  1
  Ni  Ni156  1  0.43576000  0.50000000  0.82122000  1
  Ni  Ni157  1  0.56424000  0.50000000  0.17878000  1
  Ni  Ni158  1  0.17878000  0.50000000  0.56424000  1
  Ni  Ni159  1  0.43576000  0.50000000  0.17878000  1
  Ni  Ni160  1  0.17878000  0.50000000  0.43576000  1
  H  H161  1  0.27675000  0.71077000  0.65666000  1
  Pt  Pt162  1  0.50000000  0.44054000  0.56424000  1
  Pt  Pt163  1  0.56424000  0.44054000  0.50000000  1
  Pt  Pt164  1  0.56424000  0.55946000  0.50000000  1
  Pt  Pt165  1  0.50000000  0.55946000  0.56424000  1
  Pt  Pt166  1  0.50000000  0.44054000  0.43576000  1
  Pt  Pt167  1  0.43576000  0.44054000  0.50000000  1
  Pt  Pt168  1  0.43576000  0.55946000  0.50000000  1
  Pt  Pt169  1  0.50000000  0.55946000  0.43576000  1
  Pt  Pt170  1  0.56424000  0.44054000  0.62849000  1
  Pt  Pt171  1  0.62849000  0.44054000  0.56424000  1
  Pt  Pt172  1  0.56424000  0.55946000  0.62849000  1
  Pt  Pt173  1  0.62849000  0.55946000  0.56424000  1
  Pt  Pt174  1  0.62849000  0.44054000  0.43576000  1
  Pt  Pt175  1  0.43576000  0.44054000  0.62849000  1
  Pt  Pt176  1  0.62849000  0.55946000  0.43576000  1
  Pt  Pt177  1  0.43576000  0.55946000  0.62849000  1
  Pt  Pt178  1  0.56424000  0.44054000  0.37151000  1
  Pt  Pt179  1  0.37151000  0.44054000  0.56424000  1
  Pt  Pt180  1  0.37151000  0.55946000  0.56424000  1
  Pt  Pt181  1  0.56424000  0.55946000  0.37151000  1
  Pt  Pt182  1  0.43576000  0.44054000  0.37151000  1
  Pt  Pt183  1  0.37151000  0.44054000  0.43576000  1
  Pt  Pt184  1  0.37151000  0.55946000  0.43576000  1
  Pt  Pt185  1  0.43576000  0.55946000  0.37151000  1
  Pt  Pt186  1  0.56424000  0.32161000  0.50000000  1
  Pt  Pt187  1  0.50000000  0.32161000  0.56424000  1
  Pt  Pt188  1  0.43576000  0.32161000  0.50000000  1
  Pt  Pt189  1  0.50000000  0.32161000  0.43576000  1
  Pt  Pt190  1  0.56424000  0.67839000  0.50000000  1
  Pt  Pt191  1  0.50000000  0.67839000  0.56424000  1
  Pt  Pt192  1  0.43576000  0.67839000  0.50000000  1
  Pt  Pt193  1  0.50000000  0.67839000  0.43576000  1
  Pt  Pt194  1  0.69273000  0.44054000  0.50000000  1
  Pt  Pt195  1  0.50000000  0.44054000  0.69273000  1
  Pt  Pt196  1  0.69273000  0.55946000  0.50000000  1
  Pt  Pt197  1  0.50000000  0.55946000  0.69273000  1
  Pt  Pt198  1  0.30727000  0.44054000  0.50000000  1
  Pt  Pt199  1  0.50000000  0.44054000  0.30727000  1
  Pt  Pt200  1  0.30727000  0.55946000  0.50000000  1
  Pt  Pt201  1  0.50000000  0.55946000  0.30727000  1
  Pt  Pt202  1  0.62849000  0.32161000  0.56424000  1
  Pt  Pt203  1  0.56424000  0.32161000  0.62849000  1
  Pt  Pt204  1  0.43576000  0.32161000  0.62849000  1
  Pt  Pt205  1  0.62849000  0.32161000  0.43576000  1
  Pt  Pt206  1  0.62849000  0.67839000  0.56424000  1
  Pt  Pt207  1  0.56424000  0.67839000  0.62849000  1
  Pt  Pt208  1  0.43576000  0.67839000  0.62849000  1
  Pt  Pt209  1  0.62849000  0.67839000  0.43576000  1
  Pt  Pt210  1  0.37151000  0.32161000  0.56424000  1
  Pt  Pt211  1  0.56424000  0.32161000  0.37151000  1
  Pt  Pt212  1  0.43576000  0.32161000  0.37151000  1
  Pt  Pt213  1  0.37151000  0.32161000  0.43576000  1
  Pt  Pt214  1  0.56424000  0.67839000  0.37151000  1
  Pt  Pt215  1  0.37151000  0.67839000  0.56424000  1
  Pt  Pt216  1  0.43576000  0.67839000  0.37151000  1
  Pt  Pt217  1  0.37151000  0.67839000  0.43576000  1
  Pt  Pt218  1  0.62849000  0.44054000  0.69273000  1
  Pt  Pt219  1  0.69273000  0.44054000  0.62849000  1
  Pt  Pt220  1  0.69273000  0.55946000  0.62849000  1
  Pt  Pt221  1  0.62849000  0.55946000  0.69273000  1
  Pt  Pt222  1  0.62849000  0.44054000  0.30727000  1
  Pt  Pt223  1  0.30727000  0.44054000  0.62849000  1
  Pt  Pt224  1  0.62849000  0.55946000  0.30727000  1
  Pt  Pt225  1  0.30727000  0.55946000  0.62849000  1
  Pt  Pt226  1  0.69273000  0.44054000  0.37151000  1
  Pt  Pt227  1  0.37151000  0.44054000  0.69273000  1
  Pt  Pt228  1  0.69273000  0.55946000  0.37151000  1
  Pt  Pt229  1  0.37151000  0.55946000  0.69273000  1
  Pt  Pt230  1  0.30727000  0.44054000  0.37151000  1
  Pt  Pt231  1  0.37151000  0.44054000  0.30727000  1
  Pt  Pt232  1  0.37151000  0.55946000  0.30727000  1
  Pt  Pt233  1  0.30727000  0.55946000  0.37151000  1
  Pt  Pt234  1  0.69273000  0.32161000  0.50000000  1
  Pt  Pt235  1  0.50000000  0.32161000  0.69273000  1
  Pt  Pt236  1  0.69273000  0.67839000  0.50000000  1
  Pt  Pt237  1  0.50000000  0.67839000  0.69273000  1
  Pt  Pt238  1  0.50000000  0.32161000  0.30727000  1
  Pt  Pt239  1  0.30727000  0.32161000  0.50000000  1
  Pt  Pt240  1  0.50000000  0.67839000  0.30727000  1
  Pt  Pt241  1  0.30727000  0.67839000  0.50000000  1
  Pt  Pt242  1  0.75698000  0.44054000  0.56424000  1
  Pt  Pt243  1  0.56424000  0.44054000  0.75698000  1
  Pt  Pt244  1  0.56424000  0.55946000  0.75698000  1
  Pt  Pt245  1  0.75698000  0.55946000  0.56424000  1
  Pt  Pt246  1  0.75698000  0.44054000  0.43576000  1
  Pt  Pt247  1  0.43576000  0.44054000  0.75698000  1
  Pt  Pt248  1  0.43576000  0.55946000  0.75698000  1
  Pt  Pt249  1  0.75698000  0.55946000  0.43576000  1
  Pt  Pt250  1  0.24302000  0.44054000  0.56424000  1
  Pt  Pt251  1  0.56424000  0.44054000  0.24302000  1
  Pt  Pt252  1  0.24302000  0.55946000  0.56424000  1
  Pt  Pt253  1  0.56424000  0.55946000  0.24302000  1
  Pt  Pt254  1  0.43576000  0.44054000  0.24302000  1
  Pt  Pt255  1  0.24302000  0.44054000  0.43576000  1
  Pt  Pt256  1  0.24302000  0.55946000  0.43576000  1
  Pt  Pt257  1  0.43576000  0.55946000  0.24302000  1
  Pt  Pt258  1  0.69273000  0.32161000  0.62849000  1
  Pt  Pt259  1  0.62849000  0.32161000  0.69273000  1
  Pt  Pt260  1  0.62849000  0.67839000  0.69273000  1
  Pt  Pt261  1  0.69273000  0.67839000  0.62849000  1
  Pt  Pt262  1  0.30727000  0.32161000  0.62849000  1
  Pt  Pt263  1  0.62849000  0.32161000  0.30727000  1
  Pt  Pt264  1  0.69273000  0.32161000  0.37151000  1
  Pt  Pt265  1  0.37151000  0.32161000  0.69273000  1
  Pt  Pt266  1  0.62849000  0.67839000  0.30727000  1
  Pt  Pt267  1  0.30727000  0.67839000  0.62849000  1
  Pt  Pt268  1  0.69273000  0.67839000  0.37151000  1
  Pt  Pt269  1  0.37151000  0.67839000  0.69273000  1
  Pt  Pt270  1  0.30727000  0.32161000  0.37151000  1
  Pt  Pt271  1  0.37151000  0.32161000  0.30727000  1
  Pt  Pt272  1  0.37151000  0.67839000  0.30727000  1
  Pt  Pt273  1  0.30727000  0.67839000  0.37151000  1
  Pt  Pt274  1  0.56424000  0.20269000  0.50000000  1
  Pt  Pt275  1  0.50000000  0.20269000  0.56424000  1
  Pt  Pt276  1  0.43576000  0.20269000  0.50000000  1
  Pt  Pt277  1  0.50000000  0.20269000  0.43576000  1
  Pt  Pt278  1  0.50000000  0.79731000  0.56424000  1
  Pt  Pt279  1  0.56424000  0.79731000  0.50000000  1
  Pt  Pt280  1  0.43576000  0.79731000  0.50000000  1
  Pt  Pt281  1  0.50000000  0.79731000  0.43576000  1
  Pt  Pt282  1  0.75698000  0.32161000  0.56424000  1
  Pt  Pt283  1  0.56424000  0.32161000  0.75698000  1
  Pt  Pt284  1  0.75698000  0.32161000  0.43576000  1
  Pt  Pt285  1  0.43576000  0.32161000  0.75698000  1
  Pt  Pt286  1  0.56424000  0.67839000  0.75698000  1
  Pt  Pt287  1  0.75698000  0.67839000  0.56424000  1
  Pt  Pt288  1  0.75698000  0.67839000  0.43576000  1
  Pt  Pt289  1  0.43576000  0.67839000  0.75698000  1
  Pt  Pt290  1  0.24302000  0.32161000  0.56424000  1
  Pt  Pt291  1  0.56424000  0.32161000  0.24302000  1
  Pt  Pt292  1  0.43576000  0.32161000  0.24302000  1
  Pt  Pt293  1  0.24302000  0.32161000  0.43576000  1
  Pt  Pt294  1  0.56424000  0.67839000  0.24302000  1
  Pt  Pt295  1  0.24302000  0.67839000  0.56424000  1
  Pt  Pt296  1  0.24302000  0.67839000  0.43576000  1
  Pt  Pt297  1  0.43576000  0.67839000  0.24302000  1
  Pt  Pt298  1  0.69273000  0.44054000  0.75698000  1
  Pt  Pt299  1  0.75698000  0.44054000  0.69273000  1
  Pt  Pt300  1  0.75698000  0.55946000  0.69273000  1
  Pt  Pt301  1  0.69273000  0.55946000  0.75698000  1
  Pt  Pt302  1  0.82122000  0.44054000  0.50000000  1
  Pt  Pt303  1  0.50000000  0.44054000  0.82122000  1
  Pt  Pt304  1  0.75698000  0.44054000  0.30727000  1
  Pt  Pt305  1  0.30727000  0.44054000  0.75698000  1
  Pt  Pt306  1  0.82122000  0.55946000  0.50000000  1
  Pt  Pt307  1  0.50000000  0.55946000  0.82122000  1
  Pt  Pt308  1  0.75698000  0.55946000  0.30727000  1
  Pt  Pt309  1  0.30727000  0.55946000  0.75698000  1
  Pt  Pt310  1  0.50000000  0.44054000  0.17878000  1
  Pt  Pt311  1  0.24302000  0.44054000  0.69273000  1
  Pt  Pt312  1  0.17878000  0.44054000  0.50000000  1
  Pt  Pt313  1  0.69273000  0.44054000  0.24302000  1
  Pt  Pt314  1  0.69273000  0.55946000  0.24302000  1
  Pt  Pt315  1  0.17878000  0.55946000  0.50000000  1
  Pt  Pt316  1  0.24302000  0.55946000  0.69273000  1
  Pt  Pt317  1  0.50000000  0.55946000  0.17878000  1
  Pt  Pt318  1  0.30727000  0.44054000  0.24302000  1
  Pt  Pt319  1  0.24302000  0.44054000  0.30727000  1
  Pt  Pt320  1  0.24302000  0.55946000  0.30727000  1
  Pt  Pt321  1  0.30727000  0.55946000  0.24302000  1
  Pt  Pt322  1  0.56424000  0.20269000  0.62849000  1
  Pt  Pt323  1  0.62849000  0.20269000  0.56424000  1
  Pt  Pt324  1  0.62849000  0.20269000  0.43576000  1
  Pt  Pt325  1  0.43576000  0.20269000  0.62849000  1
  Pt  Pt326  1  0.37151000  0.20269000  0.56424000  1
  Pt  Pt327  1  0.56424000  0.20269000  0.37151000  1
  Pt  Pt328  1  0.56424000  0.79731000  0.62849000  1
  Pt  Pt329  1  0.62849000  0.79731000  0.56424000  1
  Pt  Pt330  1  0.43576000  0.20269000  0.37151000  1
  Pt  Pt331  1  0.37151000  0.20269000  0.43576000  1
  Pt  Pt332  1  0.43576000  0.79731000  0.62849000  1
  Pt  Pt333  1  0.62849000  0.79731000  0.43576000  1
  Pt  Pt334  1  0.37151000  0.79731000  0.56424000  1
  Pt  Pt335  1  0.56424000  0.79731000  0.37151000  1
  Pt  Pt336  1  0.43576000  0.79731000  0.37151000  1
  Pt  Pt337  1  0.37151000  0.79731000  0.43576000  1
