data_image0
_chemical_formula_structural       Ni161Pt176H
_chemical_formula_sum              "Ni161 Pt176 H1"
_cell_length_a       30
_cell_length_b       30
_cell_length_c       30
_cell_angle_alpha    90
_cell_angle_beta     90
_cell_angle_gamma    90

_space_group_name_H-M_alt    "P 1"
_space_group_IT_number       1

loop_
  _space_group_symop_operation_xyz
  'x, y, z'

loop_
  _atom_site_type_symbol
  _atom_site_label
  _atom_site_symmetry_multiplicity
  _atom_site_fract_x
  _atom_site_fract_y
  _atom_site_fract_z
  _atom_site_occupancy
  Ni  Ni1       1.0  0.50000  0.50000  0.50000  1.0000
  Ni  Ni2       1.0  0.56424  0.50000  0.56424  1.0000
  Ni  Ni3       1.0  0.56424  0.50000  0.43576  1.0000
  Ni  Ni4       1.0  0.43576  0.50000  0.56424  1.0000
  Ni  Ni5       1.0  0.43576  0.50000  0.43576  1.0000
  Ni  Ni6       1.0  0.50000  0.38108  0.50000  1.0000
  Ni  Ni7       1.0  0.50000  0.61892  0.50000  1.0000
  Ni  Ni8       1.0  0.37151  0.50000  0.50000  1.0000
  Ni  Ni9       1.0  0.50000  0.50000  0.37151  1.0000
  Ni  Ni10      1.0  0.62849  0.50000  0.50000  1.0000
  Ni  Ni11      1.0  0.50000  0.50000  0.62849  1.0000
  Ni  Ni12      1.0  0.56424  0.38108  0.56424  1.0000
  Ni  Ni13      1.0  0.56424  0.61892  0.56424  1.0000
  Ni  Ni14      1.0  0.56424  0.38108  0.43576  1.0000
  Ni  Ni15      1.0  0.43576  0.38108  0.56424  1.0000
  Ni  Ni16      1.0  0.56424  0.61892  0.43576  1.0000
  Ni  Ni17      1.0  0.43576  0.61892  0.56424  1.0000
  Ni  Ni18      1.0  0.43576  0.38108  0.43576  1.0000
  Ni  Ni19      1.0  0.43576  0.61892  0.43576  1.0000
  Ni  Ni20      1.0  0.62849  0.38108  0.50000  1.0000
  Ni  Ni21      1.0  0.37151  0.38108  0.50000  1.0000
  Ni  Ni22      1.0  0.50000  0.38108  0.37151  1.0000
  Ni  Ni23      1.0  0.37151  0.61892  0.50000  1.0000
  Ni  Ni24      1.0  0.50000  0.61892  0.37151  1.0000
  Ni  Ni25      1.0  0.62849  0.61892  0.50000  1.0000
  Ni  Ni26      1.0  0.50000  0.61892  0.62849  1.0000
  Ni  Ni27      1.0  0.50000  0.38108  0.62849  1.0000
  Ni  Ni28      1.0  0.37151  0.50000  0.37151  1.0000
  Ni  Ni29      1.0  0.62849  0.50000  0.37151  1.0000
  Ni  Ni30      1.0  0.62849  0.50000  0.62849  1.0000
  Ni  Ni31      1.0  0.37151  0.50000  0.62849  1.0000
  Ni  Ni32      1.0  0.69273  0.50000  0.56424  1.0000
  Ni  Ni33      1.0  0.56424  0.50000  0.69273  1.0000
  Ni  Ni34      1.0  0.43576  0.50000  0.69273  1.0000
  Ni  Ni35      1.0  0.69273  0.50000  0.43576  1.0000
  Ni  Ni36      1.0  0.30727  0.50000  0.56424  1.0000
  Ni  Ni37      1.0  0.56424  0.50000  0.30727  1.0000
  Ni  Ni38      1.0  0.30727  0.50000  0.43576  1.0000
  Ni  Ni39      1.0  0.43576  0.50000  0.30727  1.0000
  Ni  Ni40      1.0  0.62849  0.38108  0.37151  1.0000
  Ni  Ni41      1.0  0.37151  0.38108  0.37151  1.0000
  Ni  Ni42      1.0  0.62849  0.38108  0.62849  1.0000
  Ni  Ni43      1.0  0.37151  0.61892  0.37151  1.0000
  Ni  Ni44      1.0  0.37151  0.61892  0.62849  1.0000
  Ni  Ni45      1.0  0.62849  0.61892  0.37151  1.0000
  Ni  Ni46      1.0  0.62849  0.61892  0.62849  1.0000
  Ni  Ni47      1.0  0.37151  0.38108  0.62849  1.0000
  Ni  Ni48      1.0  0.69273  0.38108  0.56424  1.0000
  Ni  Ni49      1.0  0.56424  0.38108  0.69273  1.0000
  Ni  Ni50      1.0  0.69273  0.61892  0.56424  1.0000
  Ni  Ni51      1.0  0.56424  0.61892  0.69273  1.0000
  Ni  Ni52      1.0  0.69273  0.38108  0.43576  1.0000
  Ni  Ni53      1.0  0.69273  0.61892  0.43576  1.0000
  Ni  Ni54      1.0  0.43576  0.61892  0.69273  1.0000
  Ni  Ni55      1.0  0.43576  0.38108  0.69273  1.0000
  Ni  Ni56      1.0  0.30727  0.38108  0.56424  1.0000
  Ni  Ni57      1.0  0.56424  0.38108  0.30727  1.0000
  Ni  Ni58      1.0  0.56424  0.61892  0.30727  1.0000
  Ni  Ni59      1.0  0.30727  0.61892  0.56424  1.0000
  Ni  Ni60      1.0  0.43576  0.38108  0.30727  1.0000
  Ni  Ni61      1.0  0.43576  0.61892  0.30727  1.0000
  Ni  Ni62      1.0  0.30727  0.61892  0.43576  1.0000
  Ni  Ni63      1.0  0.30727  0.38108  0.43576  1.0000
  Ni  Ni64      1.0  0.50000  0.26215  0.50000  1.0000
  Ni  Ni65      1.0  0.50000  0.73785  0.50000  1.0000
  Ni  Ni66      1.0  0.56424  0.26215  0.56424  1.0000
  Ni  Ni67      1.0  0.56424  0.73785  0.56424  1.0000
  Ni  Ni68      1.0  0.56424  0.26215  0.43576  1.0000
  Ni  Ni69      1.0  0.43576  0.26215  0.56424  1.0000
  Ni  Ni70      1.0  0.56424  0.73785  0.43576  1.0000
  Ni  Ni71      1.0  0.43576  0.73785  0.56424  1.0000
  Ni  Ni72      1.0  0.43576  0.73785  0.43576  1.0000
  Ni  Ni73      1.0  0.43576  0.26215  0.43576  1.0000
  Ni  Ni74      1.0  0.50000  0.50000  0.75698  1.0000
  Ni  Ni75      1.0  0.24302  0.50000  0.50000  1.0000
  Ni  Ni76      1.0  0.50000  0.50000  0.24302  1.0000
  Ni  Ni77      1.0  0.75698  0.50000  0.50000  1.0000
  Ni  Ni78      1.0  0.37151  0.73785  0.50000  1.0000
  Ni  Ni79      1.0  0.62849  0.26215  0.50000  1.0000
  Ni  Ni80      1.0  0.37151  0.26215  0.50000  1.0000
  Ni  Ni81      1.0  0.50000  0.26215  0.37151  1.0000
  Ni  Ni82      1.0  0.50000  0.73785  0.37151  1.0000
  Ni  Ni83      1.0  0.50000  0.73785  0.62849  1.0000
  Ni  Ni84      1.0  0.62849  0.73785  0.50000  1.0000
  Ni  Ni85      1.0  0.50000  0.26215  0.62849  1.0000
  Ni  Ni86      1.0  0.69273  0.50000  0.69273  1.0000
  Ni  Ni87      1.0  0.69273  0.50000  0.30727  1.0000
  Ni  Ni88      1.0  0.30727  0.50000  0.69273  1.0000
  Ni  Ni89      1.0  0.30727  0.50000  0.30727  1.0000
  Ni  Ni90      1.0  0.75698  0.38108  0.50000  1.0000
  Ni  Ni91      1.0  0.50000  0.61892  0.75698  1.0000
  Ni  Ni92      1.0  0.24302  0.61892  0.50000  1.0000
  Ni  Ni93      1.0  0.50000  0.38108  0.24302  1.0000
  Ni  Ni94      1.0  0.50000  0.61892  0.24302  1.0000
  Ni  Ni95      1.0  0.24302  0.38108  0.50000  1.0000
  Ni  Ni96      1.0  0.50000  0.38108  0.75698  1.0000
  Ni  Ni97      1.0  0.75698  0.61892  0.50000  1.0000
  Ni  Ni98      1.0  0.24302  0.50000  0.37151  1.0000
  Ni  Ni99      1.0  0.62849  0.50000  0.75698  1.0000
  Ni  Ni100     1.0  0.37151  0.50000  0.24302  1.0000
  Ni  Ni101     1.0  0.62849  0.50000  0.24302  1.0000
  Ni  Ni102     1.0  0.24302  0.50000  0.62849  1.0000
  Ni  Ni103     1.0  0.75698  0.50000  0.37151  1.0000
  Ni  Ni104     1.0  0.37151  0.50000  0.75698  1.0000
  Ni  Ni105     1.0  0.75698  0.50000  0.62849  1.0000
  Ni  Ni106     1.0  0.69273  0.38108  0.69273  1.0000
  Ni  Ni107     1.0  0.69273  0.61892  0.69273  1.0000
  Ni  Ni108     1.0  0.69273  0.38108  0.30727  1.0000
  Ni  Ni109     1.0  0.30727  0.38108  0.69273  1.0000
  Ni  Ni110     1.0  0.69273  0.61892  0.30727  1.0000
  Ni  Ni111     1.0  0.30727  0.61892  0.69273  1.0000
  Ni  Ni112     1.0  0.30727  0.38108  0.30727  1.0000
  Ni  Ni113     1.0  0.30727  0.61892  0.30727  1.0000
  Ni  Ni114     1.0  0.37151  0.73785  0.37151  1.0000
  Ni  Ni115     1.0  0.62849  0.26215  0.37151  1.0000
  Ni  Ni116     1.0  0.37151  0.26215  0.37151  1.0000
  Ni  Ni117     1.0  0.62849  0.73785  0.62849  1.0000
  Ni  Ni118     1.0  0.37151  0.73785  0.62849  1.0000
  Ni  Ni119     1.0  0.62849  0.73785  0.37151  1.0000
  Ni  Ni120     1.0  0.37151  0.26215  0.62849  1.0000
  Ni  Ni121     1.0  0.62849  0.26215  0.62849  1.0000
  Ni  Ni122     1.0  0.37151  0.61892  0.75698  1.0000
  Ni  Ni123     1.0  0.75698  0.38108  0.37151  1.0000
  Ni  Ni124     1.0  0.62849  0.38108  0.75698  1.0000
  Ni  Ni125     1.0  0.62849  0.38108  0.24302  1.0000
  Ni  Ni126     1.0  0.62849  0.61892  0.75698  1.0000
  Ni  Ni127     1.0  0.62849  0.61892  0.24302  1.0000
  Ni  Ni128     1.0  0.75698  0.38108  0.62849  1.0000
  Ni  Ni129     1.0  0.37151  0.61892  0.24302  1.0000
  Ni  Ni130     1.0  0.37151  0.38108  0.24302  1.0000
  Ni  Ni131     1.0  0.24302  0.61892  0.37151  1.0000
  Ni  Ni132     1.0  0.24302  0.38108  0.37151  1.0000
  Ni  Ni133     1.0  0.24302  0.38108  0.62849  1.0000
  Ni  Ni134     1.0  0.37151  0.38108  0.75698  1.0000
  Ni  Ni135     1.0  0.75698  0.61892  0.37151  1.0000
  Ni  Ni136     1.0  0.75698  0.61892  0.62849  1.0000
  Ni  Ni137     1.0  0.24302  0.61892  0.62849  1.0000
  Ni  Ni138     1.0  0.69273  0.26215  0.56424  1.0000
  Ni  Ni139     1.0  0.69273  0.73785  0.56424  1.0000
  Ni  Ni140     1.0  0.56424  0.26215  0.69273  1.0000
  Ni  Ni141     1.0  0.56424  0.73785  0.69273  1.0000
  Ni  Ni142     1.0  0.69273  0.26215  0.43576  1.0000
  Ni  Ni143     1.0  0.69273  0.73785  0.43576  1.0000
  Ni  Ni144     1.0  0.43576  0.26215  0.69273  1.0000
  Ni  Ni145     1.0  0.43576  0.73785  0.69273  1.0000
  Ni  Ni146     1.0  0.56424  0.26215  0.30727  1.0000
  Ni  Ni147     1.0  0.30727  0.26215  0.56424  1.0000
  Ni  Ni148     1.0  0.30727  0.73785  0.56424  1.0000
  Ni  Ni149     1.0  0.56424  0.73785  0.30727  1.0000
  Ni  Ni150     1.0  0.30727  0.73785  0.43576  1.0000
  Ni  Ni151     1.0  0.43576  0.73785  0.30727  1.0000
  Ni  Ni152     1.0  0.30727  0.26215  0.43576  1.0000
  Ni  Ni153     1.0  0.43576  0.26215  0.30727  1.0000
  Ni  Ni154     1.0  0.56424  0.50000  0.82122  1.0000
  Ni  Ni155     1.0  0.82122  0.50000  0.56424  1.0000
  Ni  Ni156     1.0  0.82122  0.50000  0.43576  1.0000
  Ni  Ni157     1.0  0.43576  0.50000  0.82122  1.0000
  Ni  Ni158     1.0  0.56424  0.50000  0.17878  1.0000
  Ni  Ni159     1.0  0.17878  0.50000  0.56424  1.0000
  Ni  Ni160     1.0  0.43576  0.50000  0.17878  1.0000
  Ni  Ni161     1.0  0.17878  0.50000  0.43576  1.0000
  Pt  Pt1       1.0  0.50000  0.44054  0.56424  1.0000
  Pt  Pt2       1.0  0.56424  0.44054  0.50000  1.0000
  Pt  Pt3       1.0  0.56424  0.55946  0.50000  1.0000
  Pt  Pt4       1.0  0.50000  0.55946  0.56424  1.0000
  Pt  Pt5       1.0  0.50000  0.44054  0.43576  1.0000
  Pt  Pt6       1.0  0.43576  0.44054  0.50000  1.0000
  Pt  Pt7       1.0  0.43576  0.55946  0.50000  1.0000
  Pt  Pt8       1.0  0.50000  0.55946  0.43576  1.0000
  Pt  Pt9       1.0  0.56424  0.44054  0.62849  1.0000
  Pt  Pt10      1.0  0.62849  0.44054  0.56424  1.0000
  Pt  Pt11      1.0  0.56424  0.55946  0.62849  1.0000
  Pt  Pt12      1.0  0.62849  0.55946  0.56424  1.0000
  Pt  Pt13      1.0  0.62849  0.44054  0.43576  1.0000
  Pt  Pt14      1.0  0.43576  0.44054  0.62849  1.0000
  Pt  Pt15      1.0  0.62849  0.55946  0.43576  1.0000
  Pt  Pt16      1.0  0.43576  0.55946  0.62849  1.0000
  Pt  Pt17      1.0  0.56424  0.44054  0.37151  1.0000
  Pt  Pt18      1.0  0.37151  0.44054  0.56424  1.0000
  Pt  Pt19      1.0  0.37151  0.55946  0.56424  1.0000
  Pt  Pt20      1.0  0.56424  0.55946  0.37151  1.0000
  Pt  Pt21      1.0  0.43576  0.44054  0.37151  1.0000
  Pt  Pt22      1.0  0.37151  0.44054  0.43576  1.0000
  Pt  Pt23      1.0  0.37151  0.55946  0.43576  1.0000
  Pt  Pt24      1.0  0.43576  0.55946  0.37151  1.0000
  Pt  Pt25      1.0  0.56424  0.32161  0.50000  1.0000
  Pt  Pt26      1.0  0.50000  0.32161  0.56424  1.0000
  Pt  Pt27      1.0  0.43576  0.32161  0.50000  1.0000
  Pt  Pt28      1.0  0.50000  0.32161  0.43576  1.0000
  Pt  Pt29      1.0  0.56424  0.67839  0.50000  1.0000
  Pt  Pt30      1.0  0.50000  0.67839  0.56424  1.0000
  Pt  Pt31      1.0  0.43576  0.67839  0.50000  1.0000
  Pt  Pt32      1.0  0.50000  0.67839  0.43576  1.0000
  Pt  Pt33      1.0  0.69273  0.44054  0.50000  1.0000
  Pt  Pt34      1.0  0.50000  0.44054  0.69273  1.0000
  Pt  Pt35      1.0  0.69273  0.55946  0.50000  1.0000
  Pt  Pt36      1.0  0.50000  0.55946  0.69273  1.0000
  Pt  Pt37      1.0  0.30727  0.44054  0.50000  1.0000
  Pt  Pt38      1.0  0.50000  0.44054  0.30727  1.0000
  Pt  Pt39      1.0  0.30727  0.55946  0.50000  1.0000
  Pt  Pt40      1.0  0.50000  0.55946  0.30727  1.0000
  Pt  Pt41      1.0  0.62849  0.32161  0.56424  1.0000
  Pt  Pt42      1.0  0.56424  0.32161  0.62849  1.0000
  Pt  Pt43      1.0  0.43576  0.32161  0.62849  1.0000
  Pt  Pt44      1.0  0.62849  0.32161  0.43576  1.0000
  Pt  Pt45      1.0  0.62849  0.67839  0.56424  1.0000
  Pt  Pt46      1.0  0.56424  0.67839  0.62849  1.0000
  Pt  Pt47      1.0  0.43576  0.67839  0.62849  1.0000
  Pt  Pt48      1.0  0.62849  0.67839  0.43576  1.0000
  Pt  Pt49      1.0  0.37151  0.32161  0.56424  1.0000
  Pt  Pt50      1.0  0.56424  0.32161  0.37151  1.0000
  Pt  Pt51      1.0  0.43576  0.32161  0.37151  1.0000
  Pt  Pt52      1.0  0.37151  0.32161  0.43576  1.0000
  Pt  Pt53      1.0  0.56424  0.67839  0.37151  1.0000
  Pt  Pt54      1.0  0.37151  0.67839  0.56424  1.0000
  Pt  Pt55      1.0  0.43576  0.67839  0.37151  1.0000
  Pt  Pt56      1.0  0.37151  0.67839  0.43576  1.0000
  Pt  Pt57      1.0  0.62849  0.44054  0.69273  1.0000
  Pt  Pt58      1.0  0.69273  0.44054  0.62849  1.0000
  Pt  Pt59      1.0  0.69273  0.55946  0.62849  1.0000
  Pt  Pt60      1.0  0.62849  0.55946  0.69273  1.0000
  Pt  Pt61      1.0  0.62849  0.44054  0.30727  1.0000
  Pt  Pt62      1.0  0.30727  0.44054  0.62849  1.0000
  Pt  Pt63      1.0  0.62849  0.55946  0.30727  1.0000
  Pt  Pt64      1.0  0.30727  0.55946  0.62849  1.0000
  Pt  Pt65      1.0  0.69273  0.44054  0.37151  1.0000
  Pt  Pt66      1.0  0.37151  0.44054  0.69273  1.0000
  Pt  Pt67      1.0  0.69273  0.55946  0.37151  1.0000
  Pt  Pt68      1.0  0.37151  0.55946  0.69273  1.0000
  Pt  Pt69      1.0  0.30727  0.44054  0.37151  1.0000
  Pt  Pt70      1.0  0.37151  0.44054  0.30727  1.0000
  Pt  Pt71      1.0  0.37151  0.55946  0.30727  1.0000
  Pt  Pt72      1.0  0.30727  0.55946  0.37151  1.0000
  Pt  Pt73      1.0  0.69273  0.32161  0.50000  1.0000
  Pt  Pt74      1.0  0.50000  0.32161  0.69273  1.0000
  Pt  Pt75      1.0  0.69273  0.67839  0.50000  1.0000
  Pt  Pt76      1.0  0.50000  0.67839  0.69273  1.0000
  Pt  Pt77      1.0  0.50000  0.32161  0.30727  1.0000
  Pt  Pt78      1.0  0.30727  0.32161  0.50000  1.0000
  Pt  Pt79      1.0  0.50000  0.67839  0.30727  1.0000
  Pt  Pt80      1.0  0.30727  0.67839  0.50000  1.0000
  Pt  Pt81      1.0  0.75698  0.44054  0.56424  1.0000
  Pt  Pt82      1.0  0.56424  0.44054  0.75698  1.0000
  Pt  Pt83      1.0  0.56424  0.55946  0.75698  1.0000
  Pt  Pt84      1.0  0.75698  0.55946  0.56424  1.0000
  Pt  Pt85      1.0  0.75698  0.44054  0.43576  1.0000
  Pt  Pt86      1.0  0.43576  0.44054  0.75698  1.0000
  Pt  Pt87      1.0  0.43576  0.55946  0.75698  1.0000
  Pt  Pt88      1.0  0.75698  0.55946  0.43576  1.0000
  Pt  Pt89      1.0  0.24302  0.44054  0.56424  1.0000
  Pt  Pt90      1.0  0.56424  0.44054  0.24302  1.0000
  Pt  Pt91      1.0  0.24302  0.55946  0.56424  1.0000
  Pt  Pt92      1.0  0.56424  0.55946  0.24302  1.0000
  Pt  Pt93      1.0  0.43576  0.44054  0.24302  1.0000
  Pt  Pt94      1.0  0.24302  0.44054  0.43576  1.0000
  Pt  Pt95      1.0  0.24302  0.55946  0.43576  1.0000
  Pt  Pt96      1.0  0.43576  0.55946  0.24302  1.0000
  Pt  Pt97      1.0  0.69273  0.32161  0.62849  1.0000
  Pt  Pt98      1.0  0.62849  0.32161  0.69273  1.0000
  Pt  Pt99      1.0  0.62849  0.67839  0.69273  1.0000
  Pt  Pt100     1.0  0.69273  0.67839  0.62849  1.0000
  Pt  Pt101     1.0  0.30727  0.32161  0.62849  1.0000
  Pt  Pt102     1.0  0.62849  0.32161  0.30727  1.0000
  Pt  Pt103     1.0  0.69273  0.32161  0.37151  1.0000
  Pt  Pt104     1.0  0.37151  0.32161  0.69273  1.0000
  Pt  Pt105     1.0  0.62849  0.67839  0.30727  1.0000
  Pt  Pt106     1.0  0.30727  0.67839  0.62849  1.0000
  Pt  Pt107     1.0  0.69273  0.67839  0.37151  1.0000
  Pt  Pt108     1.0  0.37151  0.67839  0.69273  1.0000
  Pt  Pt109     1.0  0.30727  0.32161  0.37151  1.0000
  Pt  Pt110     1.0  0.37151  0.32161  0.30727  1.0000
  Pt  Pt111     1.0  0.37151  0.67839  0.30727  1.0000
  Pt  Pt112     1.0  0.30727  0.67839  0.37151  1.0000
  Pt  Pt113     1.0  0.56424  0.20269  0.50000  1.0000
  Pt  Pt114     1.0  0.50000  0.20269  0.56424  1.0000
  Pt  Pt115     1.0  0.43576  0.20269  0.50000  1.0000
  Pt  Pt116     1.0  0.50000  0.20269  0.43576  1.0000
  Pt  Pt117     1.0  0.50000  0.79731  0.56424  1.0000
  Pt  Pt118     1.0  0.56424  0.79731  0.50000  1.0000
  Pt  Pt119     1.0  0.43576  0.79731  0.50000  1.0000
  Pt  Pt120     1.0  0.50000  0.79731  0.43576  1.0000
  Pt  Pt121     1.0  0.75698  0.32161  0.56424  1.0000
  Pt  Pt122     1.0  0.56424  0.32161  0.75698  1.0000
  Pt  Pt123     1.0  0.75698  0.32161  0.43576  1.0000
  Pt  Pt124     1.0  0.43576  0.32161  0.75698  1.0000
  Pt  Pt125     1.0  0.56424  0.67839  0.75698  1.0000
  Pt  Pt126     1.0  0.75698  0.67839  0.56424  1.0000
  Pt  Pt127     1.0  0.75698  0.67839  0.43576  1.0000
  Pt  Pt128     1.0  0.43576  0.67839  0.75698  1.0000
  Pt  Pt129     1.0  0.24302  0.32161  0.56424  1.0000
  Pt  Pt130     1.0  0.56424  0.32161  0.24302  1.0000
  Pt  Pt131     1.0  0.43576  0.32161  0.24302  1.0000
  Pt  Pt132     1.0  0.24302  0.32161  0.43576  1.0000
  Pt  Pt133     1.0  0.56424  0.67839  0.24302  1.0000
  Pt  Pt134     1.0  0.24302  0.67839  0.56424  1.0000
  Pt  Pt135     1.0  0.24302  0.67839  0.43576  1.0000
  Pt  Pt136     1.0  0.43576  0.67839  0.24302  1.0000
  Pt  Pt137     1.0  0.69273  0.44054  0.75698  1.0000
  Pt  Pt138     1.0  0.75698  0.44054  0.69273  1.0000
  Pt  Pt139     1.0  0.75698  0.55946  0.69273  1.0000
  Pt  Pt140     1.0  0.69273  0.55946  0.75698  1.0000
  Pt  Pt141     1.0  0.82122  0.44054  0.50000  1.0000
  Pt  Pt142     1.0  0.50000  0.44054  0.82122  1.0000
  Pt  Pt143     1.0  0.75698  0.44054  0.30727  1.0000
  Pt  Pt144     1.0  0.30727  0.44054  0.75698  1.0000
  Pt  Pt145     1.0  0.82122  0.55946  0.50000  1.0000
  Pt  Pt146     1.0  0.50000  0.55946  0.82122  1.0000
  Pt  Pt147     1.0  0.75698  0.55946  0.30727  1.0000
  Pt  Pt148     1.0  0.30727  0.55946  0.75698  1.0000
  Pt  Pt149     1.0  0.50000  0.44054  0.17878  1.0000
  Pt  Pt150     1.0  0.24302  0.44054  0.69273  1.0000
  Pt  Pt151     1.0  0.17878  0.44054  0.50000  1.0000
  Pt  Pt152     1.0  0.69273  0.44054  0.24302  1.0000
  Pt  Pt153     1.0  0.69273  0.55946  0.24302  1.0000
  Pt  Pt154     1.0  0.17878  0.55946  0.50000  1.0000
  Pt  Pt155     1.0  0.24302  0.55946  0.69273  1.0000
  Pt  Pt156     1.0  0.50000  0.55946  0.17878  1.0000
  Pt  Pt157     1.0  0.30727  0.44054  0.24302  1.0000
  Pt  Pt158     1.0  0.24302  0.44054  0.30727  1.0000
  Pt  Pt159     1.0  0.24302  0.55946  0.30727  1.0000
  Pt  Pt160     1.0  0.30727  0.55946  0.24302  1.0000
  Pt  Pt161     1.0  0.56424  0.20269  0.62849  1.0000
  Pt  Pt162     1.0  0.62849  0.20269  0.56424  1.0000
  Pt  Pt163     1.0  0.62849  0.20269  0.43576  1.0000
  Pt  Pt164     1.0  0.43576  0.20269  0.62849  1.0000
  Pt  Pt165     1.0  0.37151  0.20269  0.56424  1.0000
  Pt  Pt166     1.0  0.56424  0.20269  0.37151  1.0000
  Pt  Pt167     1.0  0.56424  0.79731  0.62849  1.0000
  Pt  Pt168     1.0  0.62849  0.79731  0.56424  1.0000
  Pt  Pt169     1.0  0.43576  0.20269  0.37151  1.0000
  Pt  Pt170     1.0  0.37151  0.20269  0.43576  1.0000
  Pt  Pt171     1.0  0.43576  0.79731  0.62849  1.0000
  Pt  Pt172     1.0  0.62849  0.79731  0.43576  1.0000
  Pt  Pt173     1.0  0.37151  0.79731  0.56424  1.0000
  Pt  Pt174     1.0  0.56424  0.79731  0.37151  1.0000
  Pt  Pt175     1.0  0.43576  0.79731  0.37151  1.0000
  Pt  Pt176     1.0  0.37151  0.79731  0.43576  1.0000
  H   H1        1.0  0.50072  0.15010  0.43513  1.0000
