data_con0.1_38_poscar
_audit_creation_date              2025-01-18
_audit_creation_method            'Materials Studio'
_symmetry_space_group_name_H-M    'P1'
_symmetry_Int_Tables_number       1
_symmetry_cell_setting            triclinic
loop_
_symmetry_equiv_pos_as_xyz
  x,y,z
_cell_length_a                    30.0000
_cell_length_b                    30.0000
_cell_length_c                    30.0000
_cell_angle_alpha                 90.0000
_cell_angle_beta                  90.0000
_cell_angle_gamma                 90.0000
loop_
_atom_site_label
_atom_site_type_symbol
_atom_site_fract_x
_atom_site_fract_y
_atom_site_fract_z
_atom_site_U_iso_or_equiv
_atom_site_adp_type
_atom_site_occupancy
Ni0    Ni    0.50000   0.50000   0.50000   0.00000  Uiso   1.00
Ni1    Ni    0.56424   0.50000   0.56424   0.00000  Uiso   1.00
Ni2    Ni    0.56424   0.50000   0.43576   0.00000  Uiso   1.00
Ni3    Ni    0.43576   0.50000   0.56424   0.00000  Uiso   1.00
Ni4    Ni    0.43576   0.50000   0.43576   0.00000  Uiso   1.00
Ni5    Ni    0.50000   0.38108   0.50000   0.00000  Uiso   1.00
Ni6    Ni    0.50000   0.61892   0.50000   0.00000  Uiso   1.00
Ni7    Ni    0.37151   0.50000   0.50000   0.00000  Uiso   1.00
Ni8    Ni    0.50000   0.50000   0.37151   0.00000  Uiso   1.00
Ni9    Ni    0.62849   0.50000   0.50000   0.00000  Uiso   1.00
Ni10   Ni    0.50000   0.50000   0.62849   0.00000  Uiso   1.00
Ni11   Ni    0.56424   0.38108   0.56424   0.00000  Uiso   1.00
Ni12   Ni    0.56424   0.61892   0.56424   0.00000  Uiso   1.00
Ni13   Ni    0.56424   0.38108   0.43576   0.00000  Uiso   1.00
Ni14   Ni    0.43576   0.38108   0.56424   0.00000  Uiso   1.00
Ni15   Ni    0.56424   0.61892   0.43576   0.00000  Uiso   1.00
Ni16   Ni    0.43576   0.61892   0.56424   0.00000  Uiso   1.00
Ni17   Ni    0.43576   0.38108   0.43576   0.00000  Uiso   1.00
Ni18   Ni    0.43576   0.61892   0.43576   0.00000  Uiso   1.00
Ni19   Ni    0.62849   0.38108   0.50000   0.00000  Uiso   1.00
Ni20   Ni    0.37151   0.38108   0.50000   0.00000  Uiso   1.00
Ni21   Ni    0.50000   0.38108   0.37151   0.00000  Uiso   1.00
Ni22   Ni    0.37151   0.61892   0.50000   0.00000  Uiso   1.00
Ni23   Ni    0.50000   0.61892   0.37151   0.00000  Uiso   1.00
Ni24   Ni    0.62849   0.61892   0.50000   0.00000  Uiso   1.00
Ni25   Ni    0.50000   0.61892   0.62849   0.00000  Uiso   1.00
Ni26   Ni    0.50000   0.38108   0.62849   0.00000  Uiso   1.00
Ni27   Ni    0.37151   0.50000   0.37151   0.00000  Uiso   1.00
Ni28   Ni    0.62849   0.50000   0.37151   0.00000  Uiso   1.00
Ni29   Ni    0.62849   0.50000   0.62849   0.00000  Uiso   1.00
Ni30   Ni    0.37151   0.50000   0.62849   0.00000  Uiso   1.00
Ni31   Ni    0.69273   0.50000   0.56424   0.00000  Uiso   1.00
Ni32   Ni    0.56424   0.50000   0.69273   0.00000  Uiso   1.00
Ni33   Ni    0.43576   0.50000   0.69273   0.00000  Uiso   1.00
Ni34   Ni    0.69273   0.50000   0.43576   0.00000  Uiso   1.00
Ni35   Ni    0.30727   0.50000   0.56424   0.00000  Uiso   1.00
Ni36   Ni    0.56424   0.50000   0.30727   0.00000  Uiso   1.00
Ni37   Ni    0.30727   0.50000   0.43576   0.00000  Uiso   1.00
Ni38   Ni    0.43576   0.50000   0.30727   0.00000  Uiso   1.00
Ni39   Ni    0.62849   0.38108   0.37151   0.00000  Uiso   1.00
Ni40   Ni    0.37151   0.38108   0.37151   0.00000  Uiso   1.00
Ni41   Ni    0.62849   0.38108   0.62849   0.00000  Uiso   1.00
Ni42   Ni    0.37151   0.61892   0.37151   0.00000  Uiso   1.00
Ni43   Ni    0.37151   0.61892   0.62849   0.00000  Uiso   1.00
Ni44   Ni    0.62849   0.61892   0.37151   0.00000  Uiso   1.00
Ni45   Ni    0.62849   0.61892   0.62849   0.00000  Uiso   1.00
Ni46   Ni    0.37151   0.38108   0.62849   0.00000  Uiso   1.00
Ni47   Ni    0.69273   0.38108   0.56424   0.00000  Uiso   1.00
Ni48   Ni    0.56424   0.38108   0.69273   0.00000  Uiso   1.00
Ni49   Ni    0.69273   0.61892   0.56424   0.00000  Uiso   1.00
Ni50   Ni    0.56424   0.61892   0.69273   0.00000  Uiso   1.00
Ni51   Ni    0.69273   0.38108   0.43576   0.00000  Uiso   1.00
Ni52   Ni    0.69273   0.61892   0.43576   0.00000  Uiso   1.00
Ni53   Ni    0.43576   0.61892   0.69273   0.00000  Uiso   1.00
Ni54   Ni    0.43576   0.38108   0.69273   0.00000  Uiso   1.00
Ni55   Ni    0.30727   0.38108   0.56424   0.00000  Uiso   1.00
Ni56   Ni    0.56424   0.38108   0.30727   0.00000  Uiso   1.00
Ni57   Ni    0.56424   0.61892   0.30727   0.00000  Uiso   1.00
Ni58   Ni    0.30727   0.61892   0.56424   0.00000  Uiso   1.00
Ni59   Ni    0.43576   0.38108   0.30727   0.00000  Uiso   1.00
Ni60   Ni    0.43576   0.61892   0.30727   0.00000  Uiso   1.00
Ni61   Ni    0.30727   0.61892   0.43576   0.00000  Uiso   1.00
Ni62   Ni    0.30727   0.38108   0.43576   0.00000  Uiso   1.00
Ni63   Ni    0.50000   0.26215   0.50000   0.00000  Uiso   1.00
Ni64   Ni    0.50000   0.73785   0.50000   0.00000  Uiso   1.00
Ni65   Ni    0.56424   0.26215   0.56424   0.00000  Uiso   1.00
Ni66   Ni    0.56424   0.73785   0.56424   0.00000  Uiso   1.00
Ni67   Ni    0.56424   0.26215   0.43576   0.00000  Uiso   1.00
Ni68   Ni    0.43576   0.26215   0.56424   0.00000  Uiso   1.00
Ni69   Ni    0.56424   0.73785   0.43576   0.00000  Uiso   1.00
Ni70   Ni    0.43576   0.73785   0.56424   0.00000  Uiso   1.00
Ni71   Ni    0.43576   0.73785   0.43576   0.00000  Uiso   1.00
Ni72   Ni    0.43576   0.26215   0.43576   0.00000  Uiso   1.00
Ni73   Ni    0.50000   0.50000   0.75698   0.00000  Uiso   1.00
Ni74   Ni    0.24302   0.50000   0.50000   0.00000  Uiso   1.00
Ni75   Ni    0.50000   0.50000   0.24302   0.00000  Uiso   1.00
Ni76   Ni    0.75698   0.50000   0.50000   0.00000  Uiso   1.00
Ni77   Ni    0.37151   0.73785   0.50000   0.00000  Uiso   1.00
Ni78   Ni    0.62849   0.26215   0.50000   0.00000  Uiso   1.00
Ni79   Ni    0.37151   0.26215   0.50000   0.00000  Uiso   1.00
Ni80   Ni    0.50000   0.26215   0.37151   0.00000  Uiso   1.00
Ni81   Ni    0.50000   0.73785   0.37151   0.00000  Uiso   1.00
Ni82   Ni    0.50000   0.73785   0.62849   0.00000  Uiso   1.00
Ni83   Ni    0.62849   0.73785   0.50000   0.00000  Uiso   1.00
Ni84   Ni    0.50000   0.26215   0.62849   0.00000  Uiso   1.00
Ni85   Ni    0.69273   0.50000   0.69273   0.00000  Uiso   1.00
Ni86   Ni    0.69273   0.50000   0.30727   0.00000  Uiso   1.00
Ni87   Ni    0.30727   0.50000   0.69273   0.00000  Uiso   1.00
Ni88   Ni    0.30727   0.50000   0.30727   0.00000  Uiso   1.00
Ni89   Ni    0.75698   0.38108   0.50000   0.00000  Uiso   1.00
Ni90   Ni    0.50000   0.61892   0.75698   0.00000  Uiso   1.00
Ni91   Ni    0.24302   0.61892   0.50000   0.00000  Uiso   1.00
Ni92   Ni    0.50000   0.38108   0.24302   0.00000  Uiso   1.00
Ni93   Ni    0.50000   0.61892   0.24302   0.00000  Uiso   1.00
Ni94   Ni    0.24302   0.38108   0.50000   0.00000  Uiso   1.00
Ni95   Ni    0.50000   0.38108   0.75698   0.00000  Uiso   1.00
Ni96   Ni    0.75698   0.61892   0.50000   0.00000  Uiso   1.00
Ni97   Ni    0.24302   0.50000   0.37151   0.00000  Uiso   1.00
Ni98   Ni    0.62849   0.50000   0.75698   0.00000  Uiso   1.00
Ni99   Ni    0.37151   0.50000   0.24302   0.00000  Uiso   1.00
Ni100  Ni    0.62849   0.50000   0.24302   0.00000  Uiso   1.00
Ni101  Ni    0.24302   0.50000   0.62849   0.00000  Uiso   1.00
Ni102  Ni    0.75698   0.50000   0.37151   0.00000  Uiso   1.00
Ni103  Ni    0.37151   0.50000   0.75698   0.00000  Uiso   1.00
Ni104  Ni    0.75698   0.50000   0.62849   0.00000  Uiso   1.00
Ni105  Ni    0.69273   0.38108   0.69273   0.00000  Uiso   1.00
Ni106  Ni    0.69273   0.61892   0.69273   0.00000  Uiso   1.00
Ni107  Ni    0.69273   0.38108   0.30727   0.00000  Uiso   1.00
Ni108  Ni    0.30727   0.38108   0.69273   0.00000  Uiso   1.00
Ni109  Ni    0.69273   0.61892   0.30727   0.00000  Uiso   1.00
Ni110  Ni    0.30727   0.61892   0.69273   0.00000  Uiso   1.00
Ni111  Ni    0.30727   0.38108   0.30727   0.00000  Uiso   1.00
Ni112  Ni    0.30727   0.61892   0.30727   0.00000  Uiso   1.00
Ni113  Ni    0.37151   0.73785   0.37151   0.00000  Uiso   1.00
Ni114  Ni    0.62849   0.26215   0.37151   0.00000  Uiso   1.00
Ni115  Ni    0.37151   0.26215   0.37151   0.00000  Uiso   1.00
Ni116  Ni    0.62849   0.73785   0.62849   0.00000  Uiso   1.00
Ni117  Ni    0.37151   0.73785   0.62849   0.00000  Uiso   1.00
Ni118  Ni    0.62849   0.73785   0.37151   0.00000  Uiso   1.00
Ni119  Ni    0.37151   0.26215   0.62849   0.00000  Uiso   1.00
Ni120  Ni    0.62849   0.26215   0.62849   0.00000  Uiso   1.00
Ni121  Ni    0.37151   0.61892   0.75698   0.00000  Uiso   1.00
Ni122  Ni    0.75698   0.38108   0.37151   0.00000  Uiso   1.00
Ni123  Ni    0.62849   0.38108   0.75698   0.00000  Uiso   1.00
Ni124  Ni    0.62849   0.38108   0.24302   0.00000  Uiso   1.00
Ni125  Ni    0.62849   0.61892   0.75698   0.00000  Uiso   1.00
Ni126  Ni    0.62849   0.61892   0.24302   0.00000  Uiso   1.00
Ni127  Ni    0.75698   0.38108   0.62849   0.00000  Uiso   1.00
Ni128  Ni    0.37151   0.61892   0.24302   0.00000  Uiso   1.00
Ni129  Ni    0.37151   0.38108   0.24302   0.00000  Uiso   1.00
Ni130  Ni    0.24302   0.61892   0.37151   0.00000  Uiso   1.00
Ni131  Ni    0.24302   0.38108   0.37151   0.00000  Uiso   1.00
Ni132  Ni    0.24302   0.38108   0.62849   0.00000  Uiso   1.00
Ni133  Ni    0.37151   0.38108   0.75698   0.00000  Uiso   1.00
Ni134  Ni    0.75698   0.61892   0.37151   0.00000  Uiso   1.00
Ni135  Ni    0.75698   0.61892   0.62849   0.00000  Uiso   1.00
Ni136  Ni    0.24302   0.61892   0.62849   0.00000  Uiso   1.00
Ni137  Ni    0.69273   0.26215   0.56424   0.00000  Uiso   1.00
Ni138  Ni    0.69273   0.73785   0.56424   0.00000  Uiso   1.00
Ni139  Ni    0.56424   0.26215   0.69273   0.00000  Uiso   1.00
Ni140  Ni    0.56424   0.73785   0.69273   0.00000  Uiso   1.00
Ni141  Ni    0.69273   0.26215   0.43576   0.00000  Uiso   1.00
Ni142  Ni    0.69273   0.73785   0.43576   0.00000  Uiso   1.00
Ni143  Ni    0.43576   0.26215   0.69273   0.00000  Uiso   1.00
Ni144  Ni    0.43576   0.73785   0.69273   0.00000  Uiso   1.00
Ni145  Ni    0.56424   0.26215   0.30727   0.00000  Uiso   1.00
Ni146  Ni    0.30727   0.26215   0.56424   0.00000  Uiso   1.00
Ni147  Ni    0.30727   0.73785   0.56424   0.00000  Uiso   1.00
Ni148  Ni    0.56424   0.73785   0.30727   0.00000  Uiso   1.00
Ni149  Ni    0.30727   0.73785   0.43576   0.00000  Uiso   1.00
Ni150  Ni    0.43576   0.73785   0.30727   0.00000  Uiso   1.00
Ni151  Ni    0.30727   0.26215   0.43576   0.00000  Uiso   1.00
Ni152  Ni    0.43576   0.26215   0.30727   0.00000  Uiso   1.00
Ni153  Ni    0.56424   0.50000   0.82122   0.00000  Uiso   1.00
Ni154  Ni    0.82122   0.50000   0.56424   0.00000  Uiso   1.00
Ni155  Ni    0.82122   0.50000   0.43576   0.00000  Uiso   1.00
Ni156  Ni    0.43576   0.50000   0.82122   0.00000  Uiso   1.00
Ni157  Ni    0.56424   0.50000   0.17878   0.00000  Uiso   1.00
Ni158  Ni    0.17878   0.50000   0.56424   0.00000  Uiso   1.00
Ni159  Ni    0.43576   0.50000   0.17878   0.00000  Uiso   1.00
Ni160  Ni    0.17878   0.50000   0.43576   0.00000  Uiso   1.00
Pt162  Pt    0.50000   0.44054   0.56424   0.00000  Uiso   1.00
Pt163  Pt    0.56424   0.44054   0.50000   0.00000  Uiso   1.00
Pt164  Pt    0.56424   0.55946   0.50000   0.00000  Uiso   1.00
Pt165  Pt    0.50000   0.55946   0.56424   0.00000  Uiso   1.00
Pt166  Pt    0.50000   0.44054   0.43576   0.00000  Uiso   1.00
Pt167  Pt    0.43576   0.44054   0.50000   0.00000  Uiso   1.00
Pt168  Pt    0.43576   0.55946   0.50000   0.00000  Uiso   1.00
Pt169  Pt    0.50000   0.55946   0.43576   0.00000  Uiso   1.00
Pt170  Pt    0.56424   0.44054   0.62849   0.00000  Uiso   1.00
Pt171  Pt    0.62849   0.44054   0.56424   0.00000  Uiso   1.00
Pt172  Pt    0.56424   0.55946   0.62849   0.00000  Uiso   1.00
Pt173  Pt    0.62849   0.55946   0.56424   0.00000  Uiso   1.00
Pt174  Pt    0.62849   0.44054   0.43576   0.00000  Uiso   1.00
Pt175  Pt    0.43576   0.44054   0.62849   0.00000  Uiso   1.00
Pt176  Pt    0.62849   0.55946   0.43576   0.00000  Uiso   1.00
Pt177  Pt    0.43576   0.55946   0.62849   0.00000  Uiso   1.00
Pt178  Pt    0.56424   0.44054   0.37151   0.00000  Uiso   1.00
Pt179  Pt    0.37151   0.44054   0.56424   0.00000  Uiso   1.00
Pt180  Pt    0.37151   0.55946   0.56424   0.00000  Uiso   1.00
Pt181  Pt    0.56424   0.55946   0.37151   0.00000  Uiso   1.00
Pt182  Pt    0.43576   0.44054   0.37151   0.00000  Uiso   1.00
Pt183  Pt    0.37151   0.44054   0.43576   0.00000  Uiso   1.00
Pt184  Pt    0.37151   0.55946   0.43576   0.00000  Uiso   1.00
Pt185  Pt    0.43576   0.55946   0.37151   0.00000  Uiso   1.00
Pt186  Pt    0.56424   0.32161   0.50000   0.00000  Uiso   1.00
Pt187  Pt    0.50000   0.32161   0.56424   0.00000  Uiso   1.00
Pt188  Pt    0.43576   0.32161   0.50000   0.00000  Uiso   1.00
Pt189  Pt    0.50000   0.32161   0.43576   0.00000  Uiso   1.00
Pt190  Pt    0.56424   0.67839   0.50000   0.00000  Uiso   1.00
Pt191  Pt    0.50000   0.67839   0.56424   0.00000  Uiso   1.00
Pt192  Pt    0.43576   0.67839   0.50000   0.00000  Uiso   1.00
Pt193  Pt    0.50000   0.67839   0.43576   0.00000  Uiso   1.00
Pt194  Pt    0.69273   0.44054   0.50000   0.00000  Uiso   1.00
Pt195  Pt    0.50000   0.44054   0.69273   0.00000  Uiso   1.00
Pt196  Pt    0.69273   0.55946   0.50000   0.00000  Uiso   1.00
Pt197  Pt    0.50000   0.55946   0.69273   0.00000  Uiso   1.00
Pt198  Pt    0.30727   0.44054   0.50000   0.00000  Uiso   1.00
Pt199  Pt    0.50000   0.44054   0.30727   0.00000  Uiso   1.00
Pt200  Pt    0.30727   0.55946   0.50000   0.00000  Uiso   1.00
Pt201  Pt    0.50000   0.55946   0.30727   0.00000  Uiso   1.00
Pt202  Pt    0.62849   0.32161   0.56424   0.00000  Uiso   1.00
Pt203  Pt    0.56424   0.32161   0.62849   0.00000  Uiso   1.00
Pt204  Pt    0.43576   0.32161   0.62849   0.00000  Uiso   1.00
Pt205  Pt    0.62849   0.32161   0.43576   0.00000  Uiso   1.00
Pt206  Pt    0.62849   0.67839   0.56424   0.00000  Uiso   1.00
Pt207  Pt    0.56424   0.67839   0.62849   0.00000  Uiso   1.00
Pt208  Pt    0.43576   0.67839   0.62849   0.00000  Uiso   1.00
Pt209  Pt    0.62849   0.67839   0.43576   0.00000  Uiso   1.00
Pt210  Pt    0.37151   0.32161   0.56424   0.00000  Uiso   1.00
Pt211  Pt    0.56424   0.32161   0.37151   0.00000  Uiso   1.00
Pt212  Pt    0.43576   0.32161   0.37151   0.00000  Uiso   1.00
Pt213  Pt    0.37151   0.32161   0.43576   0.00000  Uiso   1.00
Pt214  Pt    0.56424   0.67839   0.37151   0.00000  Uiso   1.00
Pt215  Pt    0.37151   0.67839   0.56424   0.00000  Uiso   1.00
Pt216  Pt    0.43576   0.67839   0.37151   0.00000  Uiso   1.00
Pt217  Pt    0.37151   0.67839   0.43576   0.00000  Uiso   1.00
Pt218  Pt    0.62849   0.44054   0.69273   0.00000  Uiso   1.00
Pt219  Pt    0.69273   0.44054   0.62849   0.00000  Uiso   1.00
Pt220  Pt    0.69273   0.55946   0.62849   0.00000  Uiso   1.00
Pt221  Pt    0.62849   0.55946   0.69273   0.00000  Uiso   1.00
Pt222  Pt    0.62849   0.44054   0.30727   0.00000  Uiso   1.00
Pt223  Pt    0.30727   0.44054   0.62849   0.00000  Uiso   1.00
Pt224  Pt    0.62849   0.55946   0.30727   0.00000  Uiso   1.00
Pt225  Pt    0.30727   0.55946   0.62849   0.00000  Uiso   1.00
Pt226  Pt    0.69273   0.44054   0.37151   0.00000  Uiso   1.00
Pt227  Pt    0.37151   0.44054   0.69273   0.00000  Uiso   1.00
Pt228  Pt    0.69273   0.55946   0.37151   0.00000  Uiso   1.00
Pt229  Pt    0.37151   0.55946   0.69273   0.00000  Uiso   1.00
Pt230  Pt    0.30727   0.44054   0.37151   0.00000  Uiso   1.00
Pt231  Pt    0.37151   0.44054   0.30727   0.00000  Uiso   1.00
Pt232  Pt    0.37151   0.55946   0.30727   0.00000  Uiso   1.00
Pt233  Pt    0.30727   0.55946   0.37151   0.00000  Uiso   1.00
Pt234  Pt    0.69273   0.32161   0.50000   0.00000  Uiso   1.00
Pt235  Pt    0.50000   0.32161   0.69273   0.00000  Uiso   1.00
Pt236  Pt    0.69273   0.67839   0.50000   0.00000  Uiso   1.00
Pt237  Pt    0.50000   0.67839   0.69273   0.00000  Uiso   1.00
Pt238  Pt    0.50000   0.32161   0.30727   0.00000  Uiso   1.00
Pt239  Pt    0.30727   0.32161   0.50000   0.00000  Uiso   1.00
Pt240  Pt    0.50000   0.67839   0.30727   0.00000  Uiso   1.00
Pt241  Pt    0.30727   0.67839   0.50000   0.00000  Uiso   1.00
Pt242  Pt    0.75698   0.44054   0.56424   0.00000  Uiso   1.00
Pt243  Pt    0.56424   0.44054   0.75698   0.00000  Uiso   1.00
Pt244  Pt    0.56424   0.55946   0.75698   0.00000  Uiso   1.00
Pt245  Pt    0.75698   0.55946   0.56424   0.00000  Uiso   1.00
Pt246  Pt    0.75698   0.44054   0.43576   0.00000  Uiso   1.00
Pt247  Pt    0.43576   0.44054   0.75698   0.00000  Uiso   1.00
Pt248  Pt    0.43576   0.55946   0.75698   0.00000  Uiso   1.00
Pt249  Pt    0.75698   0.55946   0.43576   0.00000  Uiso   1.00
Pt250  Pt    0.24302   0.44054   0.56424   0.00000  Uiso   1.00
Pt251  Pt    0.56424   0.44054   0.24302   0.00000  Uiso   1.00
Pt252  Pt    0.24302   0.55946   0.56424   0.00000  Uiso   1.00
Pt253  Pt    0.56424   0.55946   0.24302   0.00000  Uiso   1.00
Pt254  Pt    0.43576   0.44054   0.24302   0.00000  Uiso   1.00
Pt255  Pt    0.24302   0.44054   0.43576   0.00000  Uiso   1.00
Pt256  Pt    0.24302   0.55946   0.43576   0.00000  Uiso   1.00
Pt257  Pt    0.43576   0.55946   0.24302   0.00000  Uiso   1.00
Pt258  Pt    0.69273   0.32161   0.62849   0.00000  Uiso   1.00
Pt259  Pt    0.62849   0.32161   0.69273   0.00000  Uiso   1.00
Pt260  Pt    0.62849   0.67839   0.69273   0.00000  Uiso   1.00
Pt261  Pt    0.69273   0.67839   0.62849   0.00000  Uiso   1.00
Pt262  Pt    0.30727   0.32161   0.62849   0.00000  Uiso   1.00
Pt263  Pt    0.62849   0.32161   0.30727   0.00000  Uiso   1.00
Pt264  Pt    0.69273   0.32161   0.37151   0.00000  Uiso   1.00
Pt265  Pt    0.37151   0.32161   0.69273   0.00000  Uiso   1.00
Pt266  Pt    0.62849   0.67839   0.30727   0.00000  Uiso   1.00
Pt267  Pt    0.30727   0.67839   0.62849   0.00000  Uiso   1.00
Pt268  Pt    0.69273   0.67839   0.37151   0.00000  Uiso   1.00
Pt269  Pt    0.37151   0.67839   0.69273   0.00000  Uiso   1.00
Pt270  Pt    0.30727   0.32161   0.37151   0.00000  Uiso   1.00
Pt271  Pt    0.37151   0.32161   0.30727   0.00000  Uiso   1.00
Pt272  Pt    0.37151   0.67839   0.30727   0.00000  Uiso   1.00
Pt273  Pt    0.30727   0.67839   0.37151   0.00000  Uiso   1.00
Pt274  Pt    0.56424   0.20269   0.50000   0.00000  Uiso   1.00
Pt275  Pt    0.50000   0.20269   0.56424   0.00000  Uiso   1.00
Pt276  Pt    0.43576   0.20269   0.50000   0.00000  Uiso   1.00
Pt277  Pt    0.50000   0.20269   0.43576   0.00000  Uiso   1.00
Pt278  Pt    0.50000   0.79731   0.56424   0.00000  Uiso   1.00
Pt279  Pt    0.56424   0.79731   0.50000   0.00000  Uiso   1.00
Pt280  Pt    0.43576   0.79731   0.50000   0.00000  Uiso   1.00
Pt281  Pt    0.50000   0.79731   0.43576   0.00000  Uiso   1.00
Pt282  Pt    0.75698   0.32161   0.56424   0.00000  Uiso   1.00
Pt283  Pt    0.56424   0.32161   0.75698   0.00000  Uiso   1.00
Pt284  Pt    0.75698   0.32161   0.43576   0.00000  Uiso   1.00
Pt285  Pt    0.43576   0.32161   0.75698   0.00000  Uiso   1.00
Pt286  Pt    0.56424   0.67839   0.75698   0.00000  Uiso   1.00
Pt287  Pt    0.75698   0.67839   0.56424   0.00000  Uiso   1.00
Pt288  Pt    0.75698   0.67839   0.43576   0.00000  Uiso   1.00
Pt289  Pt    0.43576   0.67839   0.75698   0.00000  Uiso   1.00
Pt290  Pt    0.24302   0.32161   0.56424   0.00000  Uiso   1.00
Pt291  Pt    0.56424   0.32161   0.24302   0.00000  Uiso   1.00
Pt292  Pt    0.43576   0.32161   0.24302   0.00000  Uiso   1.00
Pt293  Pt    0.24302   0.32161   0.43576   0.00000  Uiso   1.00
Pt294  Pt    0.56424   0.67839   0.24302   0.00000  Uiso   1.00
Pt295  Pt    0.24302   0.67839   0.56424   0.00000  Uiso   1.00
Pt296  Pt    0.24302   0.67839   0.43576   0.00000  Uiso   1.00
Pt297  Pt    0.43576   0.67839   0.24302   0.00000  Uiso   1.00
Pt298  Pt    0.69273   0.44054   0.75698   0.00000  Uiso   1.00
Pt299  Pt    0.75698   0.44054   0.69273   0.00000  Uiso   1.00
Pt300  Pt    0.75698   0.55946   0.69273   0.00000  Uiso   1.00
Pt301  Pt    0.69273   0.55946   0.75698   0.00000  Uiso   1.00
Pt302  Pt    0.82122   0.44054   0.50000   0.00000  Uiso   1.00
Pt303  Pt    0.50000   0.44054   0.82122   0.00000  Uiso   1.00
Pt304  Pt    0.75698   0.44054   0.30727   0.00000  Uiso   1.00
Pt305  Pt    0.30727   0.44054   0.75698   0.00000  Uiso   1.00
Pt306  Pt    0.82122   0.55946   0.50000   0.00000  Uiso   1.00
Pt307  Pt    0.50000   0.55946   0.82122   0.00000  Uiso   1.00
Pt308  Pt    0.75698   0.55946   0.30727   0.00000  Uiso   1.00
Pt309  Pt    0.30727   0.55946   0.75698   0.00000  Uiso   1.00
Pt310  Pt    0.50000   0.44054   0.17878   0.00000  Uiso   1.00
Pt311  Pt    0.24302   0.44054   0.69273   0.00000  Uiso   1.00
Pt312  Pt    0.17878   0.44054   0.50000   0.00000  Uiso   1.00
Pt313  Pt    0.69273   0.44054   0.24302   0.00000  Uiso   1.00
Pt314  Pt    0.69273   0.55946   0.24302   0.00000  Uiso   1.00
Pt315  Pt    0.17878   0.55946   0.50000   0.00000  Uiso   1.00
Pt316  Pt    0.24302   0.55946   0.69273   0.00000  Uiso   1.00
Pt317  Pt    0.50000   0.55946   0.17878   0.00000  Uiso   1.00
Pt318  Pt    0.30727   0.44054   0.24302   0.00000  Uiso   1.00
Pt319  Pt    0.24302   0.44054   0.30727   0.00000  Uiso   1.00
Pt320  Pt    0.24302   0.55946   0.30727   0.00000  Uiso   1.00
Pt321  Pt    0.30727   0.55946   0.24302   0.00000  Uiso   1.00
Pt322  Pt    0.56424   0.20269   0.62849   0.00000  Uiso   1.00
Pt323  Pt    0.62849   0.20269   0.56424   0.00000  Uiso   1.00
Pt324  Pt    0.62849   0.20269   0.43576   0.00000  Uiso   1.00
Pt325  Pt    0.43576   0.20269   0.62849   0.00000  Uiso   1.00
Pt326  Pt    0.37151   0.20269   0.56424   0.00000  Uiso   1.00
Pt327  Pt    0.56424   0.20269   0.37151   0.00000  Uiso   1.00
Pt328  Pt    0.56424   0.79731   0.62849   0.00000  Uiso   1.00
Pt329  Pt    0.62849   0.79731   0.56424   0.00000  Uiso   1.00
Pt330  Pt    0.43576   0.20269   0.37151   0.00000  Uiso   1.00
Pt331  Pt    0.37151   0.20269   0.43576   0.00000  Uiso   1.00
Pt332  Pt    0.43576   0.79731   0.62849   0.00000  Uiso   1.00
Pt333  Pt    0.62849   0.79731   0.43576   0.00000  Uiso   1.00
Pt334  Pt    0.37151   0.79731   0.56424   0.00000  Uiso   1.00
Pt335  Pt    0.56424   0.79731   0.37151   0.00000  Uiso   1.00
Pt336  Pt    0.43576   0.79731   0.37151   0.00000  Uiso   1.00
Pt337  Pt    0.37151   0.79731   0.43576   0.00000  Uiso   1.00
H      H     0.43620   0.84997   0.50000   0.00000  Uiso   1.00
loop_
_geom_bond_atom_site_label_1
_geom_bond_atom_site_label_2
_geom_bond_distance
_geom_bond_site_symmetry_2
_ccdc_geom_bond_type
Pt280  H       1.580   .     S
